!Mechanism imported from chem.bin                                                
ELEMENTS
 H C O N
END
SPECIES
NC7H16   O2       CO2      H2O
CO       H2       OH       H2O2     HO2
H        O        CH3O     CH2O     HCO
CH2      CH3      CH4      C2H3     C2H4
C2H5     C3H4     C3H5     C3H6     C3H7
C7H15-2  C7H15O2  C7KET12  C5H11CO  N2
END

TRANS ALL
NC7H16             2   564.030     6.004     0.000     0.000     1.000          
O2                 1   107.400     3.458     0.000     1.600     3.800          
N2                 1    97.530     3.621     0.000     1.760     4.000          
H2                 1    38.000     2.920     0.000     0.790   280.000          
H2O                2   572.400     2.605     1.844     0.000     4.000          
H2O2               2   107.400     3.458     0.000     0.000     3.800          
HO2                2   107.400     3.458     0.000     0.000     1.000          
CO2                1   244.000     3.763     0.000     2.650     2.100          
CO                 1    98.100     3.650     0.000     1.950     1.800          
OH                 1    80.000     2.750     0.000     0.000     0.000          
H                  0   145.000     2.050     0.000     0.000     0.000          
O                  0    80.000     2.750     0.000     0.000     0.000          
CH3O               2   417.000     3.690     1.700     0.000     2.000          
CH2O               2   498.000     3.590     0.000     0.000     2.000          
HCO                2   498.000     3.590     0.000     0.000     0.000          
CH2                1   144.000     3.800     0.000     0.000     0.000          
CH3                1   144.000     3.800     0.000     0.000     0.000          
CH4                2   141.400     3.746     0.000     2.600    13.000          
C2H3               2   209.000     4.100     0.000     0.000     1.000          
C2H4               2   280.800     3.971     0.000     0.000     1.500          
C2H5               2   252.300     4.302     0.000     0.000     1.500          
C3H4               1   324.800     4.290     0.000     0.000     1.000          
C3H5               2   316.000     4.220     0.000     0.000     1.000          
C3H6               2   266.800     4.982     0.000     0.000     1.000          
C3H7               2   266.800     4.982     0.000     0.000     1.000          
C7H15-2            2   564.030     6.004     0.000     0.000     1.000          
C7H15O2            2   561.000     6.317     1.700     0.000     1.000          
C7KET12            2   581.300     6.506     2.000     0.000     1.000          
C5H11CO            2   498.600     6.009     2.000     0.000     1.000          
END

REACTIONS
NC7H16+H<=>H2+C7H15-2                  4.380000E+07       2.00      4.759484E+03
NC7H16+OH<=>H2O+C7H15-2                9.700000E+09       1.30      1.689817E+03
NC7H16+HO2<=>H2O2+C7H15-2              1.650000E+13       0.00      1.694816E+04
NC7H16+O2<=>HO2+C7H15-2                2.000000E+15       0.00      4.737486E+04
O2+C7H15-2<=>C7H15O2                   1.560000E+12       0.00      0.000000E+00
O2+C7H15O2<=>OH+C7KET12                4.500000E+14       0.00      1.823073E+04
C7KET12<=>OH+CH2O+C5H11CO              9.530000E+14       0.00      4.109554E+04
C5H11CO<=>CO+C2H4+C3H7                 9.840000E+15       0.00      4.019564E+04
C7H15-2<=>C2H4+C2H5+C3H6               7.045000E+14       0.00      3.459625E+04
C3H7<=>CH3+C2H4                        9.600000E+13       0.00      3.094664E+04
C3H7<=>H+C3H6                          1.250000E+14       0.00      3.689600E+04
CH3+C3H6<=>CH4+C3H5                    9.000000E+12       0.00      8.479080E+03
O2+C3H5<=>HO2+C3H4                     6.000000E+11       0.00      9.998915E+03
OH+C3H4<=>CH2O+C2H3                    1.000000E+12       0.00      0.000000E+00
OH+C3H4<=>HCO+C2H4                     1.000000E+12       0.00      0.000000E+00
HO2+CH3<=>OH+CH3O                      5.000000E+13       0.00      0.000000E+00
OH+CH3<=>H2O+CH2                       7.500000E+06       2.00      4.999458E+03
OH+CH2<=>H+CH2O                        2.500000E+13       0.00      0.000000E+00
O2+CH2<=>OH+HCO                        4.300000E+10       0.00     -4.999458E+02
O2+CH2<=>CO2+H2                        6.900000E+11       0.00      4.999458E+02
O2+CH2<=>H2O+CO                        2.000000E+10       0.00     -9.998915E+02
O2+CH2<=>O+CH2O                        5.000000E+13       0.00      8.999024E+03
O2+CH2<=>CO2+ 2H                       1.600000E+12       0.00      9.998915E+02
O2+CH2<=>CO+OH+H                       8.600000E+10       0.00     -4.999458E+02
CO+CH3O<=>CO2+CH3                      1.570000E+14       0.00      1.179872E+04
CO+OH<=>CO2+H                          8.987000E+07       1.38      5.232309E+03
OH+O<=>O2+H                            4.000000E+14      -0.50      0.000000E+00
HO2+H<=> 2OH                           1.700000E+14       0.00      8.749051E+02
 2OH<=>H2O+O                           6.000000E+08       1.30      0.000000E+00
O2+H+M<=>HO2+M                         3.600000E+17      -0.72      0.000000E+00
        CO2 /   5.00/H2O /  21.00/CO /   2.00/H2 /   3.30/
H2O2+M<=> 2OH+M                        1.000000E+16       0.00      4.549506E+04
        CO2 /   5.00/H2O /  21.00/CO /   2.00/H2 /   3.30/
H2+OH<=>H2O+H                          1.170000E+09       1.30      3.625607E+03
 2HO2<=>O2+H2O2                        3.000000E+12       0.00      0.000000E+00
OH+CH2O<=>H2O+HCO                      5.563000E+10       1.09     -7.650870E+01
HO2+CH2O<=>H2O2+HCO                    3.000000E+12       0.00      7.999132E+03
O2+HCO<=>CO+HO2                        3.300000E+13      -0.40      0.000000E+00
HCO+M<=>CO+H+M                         1.591000E+18       0.95      5.670618E+04
        
CH3O+CH3<=>CH2O+CH4                    4.300000E+14       0.00      0.000000E+00
OH+C2H4<=>CH2O+CH3                     6.000000E+13       0.00      9.598959E+02
OH+C2H4<=>H2O+C2H3                     8.020000E+13       0.00      5.954354E+03
O2+C2H3<=>CH2O+HCO                     4.000000E+12       0.00     -2.499729E+02
HCO+C2H3<=>CO+C2H4                     6.034000E+13       0.00      0.000000E+00
O2+C2H5<=>HO2+C2H4                     2.000000E+10       0.00     -2.199761E+03
O2+CH4<=>HO2+CH3                       7.900000E+13       0.00      5.599393E+04
OH+HO2<=>O2+H2O                        7.500000E+12       0.00      0.000000E+00
O2+CH3<=>OH+CH2O                       3.800000E+11       0.00      8.999024E+03
H+CH4<=>H2+CH3                         6.600000E+08       1.60      1.083882E+04
OH+CH4<=>H2O+CH3                       1.600000E+06       2.10      2.459733E+03
O+CH4<=>OH+CH3                         1.020000E+09       1.50      8.603067E+03
HO2+CH4<=>H2O2+CH3                     9.000000E+11       0.00      1.869797E+04
CH2+CH4<=> 2CH3                        4.000000E+12       0.00     -5.699382E+02
C3H6<=>CH3+C2H3                        3.150000E+15       0.00      8.549072E+04
END
