! This is an untested, automatically generated Chemkin mechanism file. 
! Please report any problems to pepiot@stanfordalumni.org. Thank you.
! Mechanism contains 109 species and 495 reactions.
ELEMENTS
N  O  H  C  
END
SPECIES
N2                O                 H                 OH                H2                H2O               H2O2              O2                
HO2               CH3               CO                CH2O              CO2               CH4               C2H4              C2H6              
CH3O              CH3OH             HOCHO             CH3O2             CH3O2H            C2H2              CH2CO             C3H4XA            
CH3CHO            C3H3              C3H5XA            C3H6              C2H3CHO           CH3CHCO           CH3COCH3          CH3COCH2O2H       
IXC4H7            IXC4H8            IXC3H5CHO         IXC3H6CO          CXC4H8O           IXC4H7OH          IXC3H7CHO         IXC4H7OOH         
TXC4H9O2          TXC4H9O2H         TXC3H6O2CHO       TXC4H9CHO         NEOXC5H11O2       NEOC5KET          YXC7H14           IC3H7COC3H6XT     
YXYXC7H14O        YXC7H15O2         JXC8H16           IXC8H18           IC8ETERAC         BXC8H17O2         BXC8H17O2H        IC8KETBC          
BC8H16OOHXCO2     CH2GSG            CH2               C2H5              HCO               CH2OH             HOCH2O            C2H               
HCCO              C2H3              CH2CHO            CH3CO             C3H2              C3H5O             C3H5XT            CH3COCH2          
IXC3H7            CH3CHCHO          CH2CCH2OH         C2H5CO            CH3COCH2O         IXC3H7O2          C3H6OOH2X1        CH3COCH2O2        
IXC4H7O           TXC4H9            TXC4H9O           IXC3H5CO          IXC4H6OH          TXC3H6CHO         TXC3H6OCHO        IXC4H8OH          
TC4H8O2HXI        TXC3H6O2HCO       IC4KETIT          IXO2C4H8OH        IC4H8OOHXTO2      NEOXC5H11         NEOXC5H11O        TXC4H9CO          
NEOC5KETOX        NEOXC5H10OOH      NEOC5H10OOHXO2    NEOC5H9Q2XN       XXC7H13           XC7H13OXZ         YXC7H15           TC4H9COC2H4S      
YC7H13OOHXX1      YC7H14OOHXY2      CXC8H17           DXC8H17O          BC8H16OOHXC       
END

TRANS ALL
N2                 1    97.530     3.621     0.000     1.760     4.000          
O                  0    80.000     2.750     0.000     0.000     0.000          
H                  0    145.000    2.050     0.000     0.000     0.000          
OH                 1    80.000     2.750     0.000     0.000     0.000          
H2                 1    38.000     2.920     0.000     0.790     280.0          
H2O                2    572.400    2.605     1.844     0.000     4.000          
H2O2               2    107.400    3.458     0.000     0.000     3.800          
O2                 1    107.400    3.458     0.000     1.600     3.800          
HO2                2    107.400    3.458     0.000     0.000     1.000          
CH3                1    144.000    3.800     0.000     0.000     0.000          
CO                 1    98.100     3.650     0.000     1.950     1.800          
CH2O               2    498.000    3.590     0.000     0.000     2.000          
CO2                1    244.000    3.763     0.000     2.650     2.100          
CH4                2    141.400    3.746     0.000     2.600     13.00          
C2H4               2    238.400    3.496     0.000     0.000     1.500          
C2H6               2    247.500    4.350     0.000     0.000     1.500          
CH3O               2    417.000    3.690     1.700     0.000     2.000          
CH3OH              2    481.800    3.626     0.000     0.000     1.000          
HOCHO              2    436.000    3.970     0.000     0.000     2.000          
CH3O2              2    481.800    3.626     0.000     0.000     1.000          
CH3O2H             2    481.800    3.626     0.000     0.000     1.000          
C2H2               1    265.300    3.721     0.000     0.000     2.500          
CH2CO              2    314.3      4.191     1.4       0.0       2.000          
C3H4XA             1    324.800    4.290     0.000     0.000     1.000          
CH3CHO             2    436.000    3.970     0.000     0.000     2.000          
C3H3               1    324.800    4.290     0.000     0.000     1.000          
C3H5XA             2    316.000    4.220     0.000     0.000     1.000          
C3H6               2    307.800    4.140     0.000     0.000     1.000          
C2H3CHO            2    428.8      4.958     2.9       0.0       1.000          
CH3CHCO            2    443.200    4.120     0.000     0.000     1.000          
CH3COCH3           2    435.500    4.860     0.000     0.000     1.000          
CH3COCH2O2H        2    505.403    5.449     0.000     0.000     0.000          
IXC4H7             2    355.000    4.650     0.000     0.000     1.000          
IXC4H8             2    344.5      5.089     0.5       0.0       1.000          
IXC3H5CHO          2    436.4      5.352     0.0       0.0       1.000          
IXC3H6CO           2    436.4      5.352     0.0       0.0       1.000          
CXC4H8O            2    444.197    5.063     0.000     0.000     0.000          
IXC4H7OH           2    502.2      5.356     1.8       0.0       1.000          
IXC3H7CHO          2    436.4      5.352     0.0       0.0       1.000          
IXC4H7OOH          2    498.949    5.410     0.000     0.000     0.000          
TXC4H9O2           2    502.252    5.430     0.000     0.000     0.000          
TXC4H9O2H          2    505.540    5.450     0.000     0.000     0.000          
TXC3H6O2CHO        2    436.4      5.352     0.0       0.0       1.000          
TXC4H9CHO          2    476.0      5.778     2.6       0.0       1.000          
NEOXC5H11O2        2    546.691    5.698     0.000     0.000     0.000          
NEOC5KET           2    591.463    5.959     0.000     0.000     0.000          
YXC7H14            2    439.2      6.151     0.0       0.0       1.000          
IC3H7COC3H6XT      2    561.0      6.317     1.7       0.0       1.000          
YXYXC7H14O         2    561.0      6.317     1.7       0.0       1.000          
YXC7H15O2          2    561.0      6.317     1.7       0.0       1.000          
JXC8H16            2    485.6      6.440     0.3       0.0       1.000          
IXC8H18            2    458.5      6.414     0.0       0.0       1.000          
IC8ETERAC          2    581.3      6.506     2.0       0.0       1.000          
BXC8H17O2          2    581.3      6.506     2.0       0.0       1.000          
BXC8H17O2H         2    581.3      6.506     2.0       0.0       1.000          
IC8KETBC           2    581.3      6.506     2.0       0.0       1.000          
BC8H16OOHXCO2      2    581.3      6.506     2.0       0.0       1.000          
CH2GSG             1    144.000    3.800     0.000     0.000     0.000          
CH2                1    144.000    3.800     0.000     0.000     0.000          
C2H5               2    247.500    4.350     0.000     0.000     1.500          
HCO                2    498.000    3.590     0.000     0.000     0.000          
CH2OH              2    417.000    3.690     1.700     0.000     2.000          
HOCH2O             2    470.600    4.410     0.000     0.000     1.500          
C2H                1    265.300    3.721     0.000     0.000     2.500          
HCCO               2    150.000    2.500     0.000     0.000     1.000          
C2H3               2    265.300    3.721     0.000     0.000     1.000          
CH2CHO             2    436.000    3.970     0.000     0.000     2.000          
CH3CO              2    436.000    3.970     0.000     0.000     2.000          
C3H2               2    209.000    4.100     0.000     0.000     1.000          
C3H5O              2    411.000    4.820     0.000     0.000     1.000          
C3H5XT             2    316.000    4.220     0.000     0.000     1.000          
CH3COCH2           2    435.500    4.860     0.000     0.000     1.000          
IXC3H7             2    303.400    4.810     0.000     0.000     1.000          
CH3CHCHO           2    387.860    4.687     0.000     0.000     0.000          
CH2CCH2OH          2    481.5      4.997     1.7       0.0       1.000          
C2H5CO             2    424.600    4.820     0.000     0.000     1.000          
CH3COCH2O          2    447.639    5.086     0.000     0.000     0.000          
IXC3H7O2           2    459.5      5.036     1.7       0.0       1.000          
C3H6OOH2X1         2    435.2      4.662     2.7       0.0       1.000          
CH3COCH2O2         2    502.115    5.429     0.000     0.000     0.000          
IXC4H7O            2    496.000    5.200     0.000     0.000     1.000          
TXC4H9             2    352.000    5.240     0.000     0.000     1.000          
TXC4H9O            2    496.000    5.200     0.000     0.000     1.000          
IXC3H5CO           2    436.4      5.352     0.0       0.0       1.000          
IXC4H6OH           2    502.2      5.356     1.8       0.0       1.000          
TXC3H6CHO          2    436.4      5.352     0.0       0.0       1.000          
TXC3H6OCHO         2    436.4      5.352     0.0       0.0       1.000          
IXC4H8OH           2    496.000    5.200     0.000     0.000     1.000          
TC4H8O2HXI         2    502.2      5.356     1.8       0.0       1.000          
TXC3H6O2HCO        2    436.4      5.352     0.0       0.0       1.000          
IC4KETIT           2    549.655    5.716     0.000     0.000     0.000          
IXO2C4H8OH         2    496.000    5.200     0.000     0.000     1.000          
IC4H8OOHXTO2       2    600.078    6.009     0.000     0.000     0.000          
NEOXC5H11          2    440.735    5.041     0.000     0.000     0.000          
NEOXC5H11O         2    495.769    5.390     0.000     0.000     0.000          
TXC4H9CO           2    476.0      5.778     2.6       0.0       1.000          
NEOC5KETOX         2    540.467    5.661     0.000     0.000     0.000          
NEOXC5H10OOH       2    546.691    5.698     0.000     0.000     0.000          
NEOC5H10OOHXO2     2    639.455    6.230     0.000     0.000     0.000          
NEOC5H9Q2XN        2    639.455    6.230     0.000     0.000     0.000          
XXC7H13            2    439.2      6.151     0.0       0.0       1.000          
XC7H13OXZ          2    561.0      6.317     1.7       0.0       1.000          
YXC7H15            2    437.3      6.168     0.0       0.0       1.000          
TC4H9COC2H4S       2    561.0      6.317     1.7       0.0       1.000          
YC7H13OOHXX1       2    561.0      6.317     1.7       0.0       1.000          
YC7H14OOHXY2       2    561.0      6.317     1.7       0.0       1.000          
CXC8H17            2    458.5      6.414     0.0       0.0       1.000          
DXC8H17O           2    581.3      6.506     2.0       0.0       1.000          
BC8H16OOHXC        2    581.3      6.506     2.0       0.0       1.000          
END

REACTIONS
O+H+M=>OH+M                              4.720e+18   -1.000      0.00
H2/2.50/ H2O/12.00/ CH2GSG/0.00/ CH2/0.00/ CO/1.90/ CO2/3.80/ C2H5/0.00/ 
O+H2<=>H+OH                              5.080e+04    2.670   6292.07
OH+H2<=>H+H2O                            2.160e+08    1.510   3429.97
2OH(+M)<=>H2O2(+M)                       1.236e+14   -0.370      0.00
H2/2.50/ H2O/12.00/ CH2GSG/0.00/ CH2/0.00/ CO/1.90/ CO2/3.80/ C2H5/0.00/ 
     LOW  /  3.041e+30   -4.630   2049.00 /
     TROE/    0.47   100.00   2000.00 1000000000000000.00 /
O+H2O<=>2OH                              2.970e+06    2.020  13400.10
H2O+M<=>H+OH+M                           1.837e+27   -3.000 122599.90
H2/2.50/ H2O/12.00/ CH2GSG/0.00/ CH2/0.00/ CO/1.90/ CO2/3.80/ C2H5/0.00/ 
H+O2<=>O+OH                              1.970e+14    0.000  16539.91
H+O2(+M)<=>HO2(+M)                       1.475e+12    0.600      0.00
H2/2.50/ H2O/12.00/ CH2GSG/0.00/ CH2/0.00/ CO/1.90/ CO2/3.80/ C2H5/0.00/ 
     LOW  /  3.500e+16   -0.410  -1115.92 /
     TROE/     0.5     0.00 1000000000000000019884624838656.00 10000000000.00 /
HO2+O<=>OH+O2                            3.250e+13    0.000      0.00
HO2+H=>H2+O2                             1.660e+13    0.000    820.03
HO2+OH<=>H2O+O2                          2.890e+13    0.000   -500.00
HO2+H<=>2OH                              7.080e+13    0.000    299.95
H2O2+O2<=>2HO2                           1.839e+14   -0.660  39549.95
     DUPLICATE
H2O2+O2<=>2HO2                           5.942e+17   -0.660  53150.10
     DUPLICATE
H2O2+H=>H2O+OH                           2.410e+13    0.000   3969.89
H2O2+OH<=>H2O+HO2                        5.800e+14    0.000   9559.99
     DUPLICATE
H2O2+OH<=>H2O+HO2                        1.000e+12    0.000      0.00
     DUPLICATE
H2O2+O=>OH+HO2                           9.550e+06    2.000   3969.89
H2O2+H<=>H2+HO2                          4.820e+13    0.000   7950.05
CH2GSG+M<=>CH2+M                         1.000e+13    0.000      0.00
CH2GSG+H2<=>CH3+H                        7.000e+13    0.000      0.00
CH2GSG+O2=>CO+OH+H                       7.000e+13    0.000      0.00
CH2GSG+OH=>CH2O+H                        3.000e+13    0.000      0.00
CH2+O=>CO+2H                             5.000e+13    0.000      0.00
CH2+O2=>CO2+2H                           3.290e+21   -3.300   2868.07
CH2+O2=>CH2O+O                           3.290e+21   -3.300   2868.07
CH2+O2=>CO2+H2                           1.010e+21   -3.300   1507.89
CH2+O2=>CO+H2O                           7.280e+19   -2.540   1809.03
CH3+OH<=>CH2+H2O                         3.000e+06    2.000   2500.00
CH3+O2=>CH2O+OH                          7.470e+11    0.000  14250.00
CH3+H<=>CH2+H2                           9.000e+13    0.000  15099.90
CH3+OH<=>CH2GSG+H2O                      2.650e+13    0.000   2185.95
CH3+H(+M)<=>CH4(+M)                      2.138e+15   -0.400      0.00
H2/2.00/ H2O/5.00/ CH2GSG/0.00/ CH2/0.00/ CO/2.00/ CO2/3.00/ C2H5/0.00/ 
     LOW  /  3.310e+30   -4.000   2108.03 /
     TROE/       0     0.00      0.00     40.00 /
CH3+O=>CH2O+H                            8.000e+13    0.000      0.00
CH2GSG+CH3=>C2H4+H                       2.000e+13    0.000      0.00
2CH3=>C2H5+H                             5.446e+16   -1.030  16979.92
CH3+H2O2=>CH4+HO2                        3.365e+11   -0.330   2501.91
2CH3(+M)<=>C2H6(+M)                      9.214e+16   -1.170    635.76
H2/2.00/ H2O/5.00/ CH2GSG/0.00/ CH2/0.00/ CO/2.00/ CO2/3.00/ C2H5/0.00/ 
     LOW  /  1.135e+36   -5.246   1705.07 /
     TROE/   0.405  1120.00     69.60 1000000000000000.00 /
CH3+HO2=>CH4+O2                          3.600e+12    0.000      0.00
CH3+HO2=>CH3O+OH                         1.100e+13    0.000      0.00
CH3+OH=>CH2O+H2                          2.250e+13    0.000   4299.95
CH3+O2=>CH3O+O                           1.995e+18   -1.570  29210.09
CH4+OH<=>CH3+H2O                         1.930e+05    2.400   2106.12
CH4+O=>CH3+OH                            2.130e+06    2.210   6479.92
CH2GSG+CH4<=>2CH3                        4.000e+13    0.000      0.00
CH4+H<=>CH3+H2                           1.727e+04    3.000   8223.95
CO+O2=>CO2+O                             1.068e-15    7.130  13320.03
CO+OH<=>CO2+H                            1.400e+05    1.950  -1347.04
CO+O(+M)=>CO2(+M)                        1.800e+10    0.000   2384.08
H2/2.50/ H2O/12.00/ CH2GSG/0.00/ CH2/0.00/ CO/1.90/ CO2/3.80/ C2H5/0.00/ 
     LOW  /  1.350e+24   -2.788   4190.97 /
     TROE/       1     1.00 10000000.00 10000000.00 /
CO+HO2=>CO2+OH                           3.010e+13    0.000  23000.00
HCO+OH=>CO+H2O                           1.020e+14    0.000      0.00
HCO+H<=>CO+H2                            7.340e+13    0.000      0.00
HCO+O=>CO2+H                             3.000e+13    0.000      0.00
HCO+M<=>H+CO+M                           1.860e+17   -1.000  17000.00
HCO+O=>CO+OH                             3.020e+13    0.000      0.00
HCO+O2<=>CO+HO2                          7.580e+12    0.000    409.89
HCO+CH3=>CH4+CO                          1.210e+14    0.000      0.00
CH2O+H<=>HCO+H2                          9.334e+08    1.500   2976.10
CH2O+M=>CO+H2+M                          1.826e+32   -4.420  87119.98
CH2O+CH3=>HCO+CH4                        3.636e-06    5.420    998.09
CH2O+O=>HCO+OH                           4.160e+11    0.570   2761.95
CH2O+M=>HCO+H+M                          6.283e+29   -3.570  93200.05
CH2O+O2=>HCO+HO2                         2.050e+13    0.000  38950.05
CH2O+HO2=>HCO+H2O2                       5.820e-03    4.530   6556.88
CH2O+OH=>HCO+H2O                         3.430e+09    1.180   -446.94
2CH3O=>CH3OH+CH2O                        6.030e+13    0.000      0.00
CH2O+CH3O=>CH3OH+HCO                     1.150e+11    0.000   1280.11
CH3O+H2=>CH3OH+H                         7.467e+12   -0.020   7825.05
CH3O(+M)=>CH2O+H(+M)                     5.450e+13    0.000  13500.00
     LOW  /  2.344e+25   -2.700  30599.90 /
     TROE/       1     1.00 10000000.00 10000000.00 /
CH3O+O2=>CH2O+HO2                        5.500e+10    0.000   2424.00
CH2OH(+M)<=>CH2O+H(+M)                   2.800e+14   -0.730  32820.03
CH2GSG/0.00/ CH2/0.00/ C2H5/0.00/ HCO/0.00/ CH2OH/0.00/ HOCH2O/0.00/ C2H/0.00/ 
HCCO/0.00/ C2H3/0.00/ CH2CHO/0.00/ CH3CO/0.00/ C3H2/0.00/ C3H5O/0.00/ C3H5XT/0.00/ 
CH3COCH2/0.00/ IXC3H7/0.00/ CH3CHCHO/0.00/ CH2CCH2OH/0.00/ C2H5CO/0.00/ 
CH3COCH2O/0.00/ IXC3H7O2/0.00/ C3H6OOH2X1/0.00/ CH3COCH2O2/0.00/ IXC4H7O/0.00/ 
TXC4H9/0.00/ TXC4H9O/0.00/ IXC3H5CO/0.00/ IXC4H6OH/0.00/ TXC3H6CHO/0.00/ 
TXC3H6OCHO/0.00/ IXC4H8OH/0.00/ TC4H8O2HXI/0.00/ TXC3H6O2HCO/0.00/ 
IC4KETIT/0.00/ IXO2C4H8OH/0.00/ IC4H8OOHXTO2/0.00/ NEOXC5H11/0.00/ 
NEOXC5H11O/0.00/ TXC4H9CO/0.00/ NEOC5KETOX/0.00/ NEOXC5H10OOH/0.00/ 
NEOC5H10OOHXO2/0.00/ NEOC5H9Q2XN/0.00/ XXC7H13/0.00/ XC7H13OXZ/0.00/ 
YXC7H15/0.00/ TC4H9COC2H4S/0.00/ YC7H13OOHXX1/0.00/ YC7H14OOHXY2/0.00/ 
CXC8H17/0.00/ DXC8H17O/0.00/ BC8H16OOHXC/0.00/ 
     LOW  /  6.010e+33   -5.390  36200.05 /
     TROE/    0.96    67.60   1855.00   7543.00 /
CH2OH+CH2O=>CH3OH+HCO                    1.292e-01    4.560   6596.08
CH2OH+O2=>CH2O+HO2                       3.810e+06    2.000   1641.01
CH3OH+O=>CH2OH+OH                        3.880e+05    2.500   3080.07
CH3OH(+M)<=>CH3+OH(+M)                   1.900e+16    0.000  91729.92
H2/2.00/ H2O/16.00/ CH2GSG/0.00/ CH2/0.00/ CO/2.00/ CO2/3.00/ C2H5/0.00/ 
HCO/0.00/ CH2OH/0.00/ HOCH2O/0.00/ C2H/0.00/ HCCO/0.00/ C2H3/0.00/ CH2CHO/0.00/ 
CH3CO/0.00/ C3H2/0.00/ C3H5O/0.00/ C3H5XT/0.00/ CH3COCH2/0.00/ IXC3H7/0.00/ 
CH3CHCHO/0.00/ CH2CCH2OH/0.00/ C2H5CO/0.00/ CH3COCH2O/0.00/ IXC3H7O2/0.00/ 
C3H6OOH2X1/0.00/ CH3COCH2O2/0.00/ IXC4H7O/0.00/ TXC4H9/0.00/ TXC4H9O/0.00/ 
IXC3H5CO/0.00/ IXC4H6OH/0.00/ TXC3H6CHO/0.00/ TXC3H6OCHO/0.00/ IXC4H8OH/0.00/ 
TC4H8O2HXI/0.00/ TXC3H6O2HCO/0.00/ IC4KETIT/0.00/ IXO2C4H8OH/0.00/ 
IC4H8OOHXTO2/0.00/ NEOXC5H11/0.00/ NEOXC5H11O/0.00/ TXC4H9CO/0.00/ 
NEOC5KETOX/0.00/ NEOXC5H10OOH/0.00/ NEOC5H10OOHXO2/0.00/ NEOC5H9Q2XN/0.00/ 
XXC7H13/0.00/ XC7H13OXZ/0.00/ YXC7H15/0.00/ TC4H9COC2H4S/0.00/ 
YC7H13OOHXX1/0.00/ YC7H14OOHXY2/0.00/ CXC8H17/0.00/ DXC8H17O/0.00/ 
BC8H16OOHXC/0.00/ 
     LOW  /  2.950e+44   -7.350  95460.09 /
     TROE/   0.414   279.00   5459.00 10000000000.00 /
CH3OH+H=>CH2OH+H2                        1.440e+13    0.000   6094.89
CH3OH+HO2=>CH2OH+H2O2                    3.980e+13    0.000  19400.10
CH3OH+OH=>CH2OH+H2O                      7.100e+06    1.800   -596.08
CH3OH+OH=>CH3O+H2O                       1.000e+06    2.100    496.65
CH3OH(+M)=>CH2OH+H(+M)                   2.690e+16   -0.080  98940.01
CH2GSG/0.00/ CH2/0.00/ C2H5/0.00/ HCO/0.00/ CH2OH/0.00/ HOCH2O/0.00/ C2H/0.00/ 
HCCO/0.00/ C2H3/0.00/ CH2CHO/0.00/ CH3CO/0.00/ C3H2/0.00/ C3H5O/0.00/ C3H5XT/0.00/ 
CH3COCH2/0.00/ IXC3H7/0.00/ CH3CHCHO/0.00/ CH2CCH2OH/0.00/ C2H5CO/0.00/ 
CH3COCH2O/0.00/ IXC3H7O2/0.00/ C3H6OOH2X1/0.00/ CH3COCH2O2/0.00/ IXC4H7O/0.00/ 
TXC4H9/0.00/ TXC4H9O/0.00/ IXC3H5CO/0.00/ IXC4H6OH/0.00/ TXC3H6CHO/0.00/ 
TXC3H6OCHO/0.00/ IXC4H8OH/0.00/ TC4H8O2HXI/0.00/ TXC3H6O2HCO/0.00/ 
IC4KETIT/0.00/ IXO2C4H8OH/0.00/ IC4H8OOHXTO2/0.00/ NEOXC5H11/0.00/ 
NEOXC5H11O/0.00/ TXC4H9CO/0.00/ NEOC5KETOX/0.00/ NEOXC5H10OOH/0.00/ 
NEOC5H10OOHXO2/0.00/ NEOC5H9Q2XN/0.00/ XXC7H13/0.00/ XC7H13OXZ/0.00/ 
YXC7H15/0.00/ TC4H9COC2H4S/0.00/ YC7H13OOHXX1/0.00/ YC7H14OOHXY2/0.00/ 
CXC8H17/0.00/ DXC8H17O/0.00/ BC8H16OOHXC/0.00/ 
     LOW  /  2.340e+40   -6.330 103099.90 /
     TROE/   0.773   693.00   5333.00 10000000000.00 /
CH2GSG+CO2=>CH2O+CO                      3.000e+12    0.000      0.00
HOCHO+OH=>H2O+CO2+H                      2.620e+06    2.060    916.11
HOCHO+HO2=>H2O2+CO+OH                    1.000e+12    0.000  11919.93
HOCHO+O=>CO+2OH                          1.770e+18   -1.900   2974.90
HOCHO+H=>H2+CO+OH                        6.030e+13   -0.350   2988.05
HOCHO+CH3=>CH4+CO+OH                     3.900e-07    5.800   2200.05
HOCHO+M<=>CO2+H2+M                       1.500e+16    0.000  57000.00
CH2GSG/0.00/ CH2/0.00/ C2H5/0.00/ HCO/0.00/ CH2OH/0.00/ HOCH2O/0.00/ C2H/0.00/ 
HCCO/0.00/ C2H3/0.00/ CH2CHO/0.00/ CH3CO/0.00/ C3H2/0.00/ C3H5O/0.00/ C3H5XT/0.00/ 
CH3COCH2/0.00/ IXC3H7/0.00/ CH3CHCHO/0.00/ CH2CCH2OH/0.00/ C2H5CO/0.00/ 
CH3COCH2O/0.00/ IXC3H7O2/0.00/ C3H6OOH2X1/0.00/ CH3COCH2O2/0.00/ IXC4H7O/0.00/ 
TXC4H9/0.00/ TXC4H9O/0.00/ IXC3H5CO/0.00/ IXC4H6OH/0.00/ TXC3H6CHO/0.00/ 
TXC3H6OCHO/0.00/ IXC4H8OH/0.00/ TC4H8O2HXI/0.00/ TXC3H6O2HCO/0.00/ 
IC4KETIT/0.00/ IXO2C4H8OH/0.00/ IC4H8OOHXTO2/0.00/ NEOXC5H11/0.00/ 
NEOXC5H11O/0.00/ TXC4H9CO/0.00/ NEOC5KETOX/0.00/ NEOXC5H10OOH/0.00/ 
NEOC5H10OOHXO2/0.00/ NEOC5H9Q2XN/0.00/ XXC7H13/0.00/ XC7H13OXZ/0.00/ 
YXC7H15/0.00/ TC4H9COC2H4S/0.00/ YC7H13OOHXX1/0.00/ YC7H14OOHXY2/0.00/ 
CXC8H17/0.00/ DXC8H17O/0.00/ BC8H16OOHXC/0.00/ 
HOCHO+H=>H2+CO2+H                        4.240e+06    2.100   4868.07
HOCHO<=>HCO+OH                           4.593e+18   -0.460 108299.95
HOCHO+OH=>H2O+CO+OH                      1.850e+07    1.510   -962.00
HOCH2O<=>CH2O+OH                         1.643e+14   -0.100  21890.06
HOCH2O<=>HOCHO+H                         1.000e+14    0.000  14900.10
CH3O2+HO2=>CH3O2H+O2                     1.750e+10    0.000  -3275.10
CH3O2+CH3=>2CH3O                         7.000e+12    0.000  -1000.00
CH3OH+CH3O2=>CH2OH+CH3O2H                1.810e+12    0.000  13710.09
2CH3O2=>CH2O+CH3OH+O2                    3.110e+14   -1.610  -1050.91
CH3O2+CH2O=>CH3O2H+HCO                   1.990e+12    0.000  11669.93
CH3O2+M<=>CH3+O2+M                       4.343e+27   -3.420  30469.89
CH2GSG/0.00/ CH2/0.00/ C2H5/0.00/ HCO/0.00/ CH2OH/0.00/ HOCH2O/0.00/ C2H/0.00/ 
HCCO/0.00/ C2H3/0.00/ CH2CHO/0.00/ CH3CO/0.00/ C3H2/0.00/ C3H5O/0.00/ C3H5XT/0.00/ 
CH3COCH2/0.00/ IXC3H7/0.00/ CH3CHCHO/0.00/ CH2CCH2OH/0.00/ C2H5CO/0.00/ 
CH3COCH2O/0.00/ IXC3H7O2/0.00/ C3H6OOH2X1/0.00/ CH3COCH2O2/0.00/ IXC4H7O/0.00/ 
TXC4H9/0.00/ TXC4H9O/0.00/ IXC3H5CO/0.00/ IXC4H6OH/0.00/ TXC3H6CHO/0.00/ 
TXC3H6OCHO/0.00/ IXC4H8OH/0.00/ TC4H8O2HXI/0.00/ TXC3H6O2HCO/0.00/ 
IC4KETIT/0.00/ IXO2C4H8OH/0.00/ IC4H8OOHXTO2/0.00/ NEOXC5H11/0.00/ 
NEOXC5H11O/0.00/ TXC4H9CO/0.00/ NEOC5KETOX/0.00/ NEOXC5H10OOH/0.00/ 
NEOC5H10OOHXO2/0.00/ NEOC5H9Q2XN/0.00/ XXC7H13/0.00/ XC7H13OXZ/0.00/ 
YXC7H15/0.00/ TC4H9COC2H4S/0.00/ YC7H13OOHXX1/0.00/ YC7H14OOHXY2/0.00/ 
CXC8H17/0.00/ DXC8H17O/0.00/ BC8H16OOHXC/0.00/ 
2CH3O2=>O2+2CH3O                         1.400e+16   -1.610   1859.94
CH3O2H=>CH3O+OH                          6.310e+14    0.000  42299.95
C2H+O2=>HCO+CO                           2.410e+12    0.000      0.00
C2H+OH=>O+C2H2                           4.443e+10    0.480 -15570.03
C2H2+O=>HCCO+H                           1.430e+07    2.000   1900.10
C2H2+OH=>CH2CO+H                         2.190e-04    4.500  -1000.00
C2H2+CH3<=>C3H4XA+H                      1.211e+17   -1.200  16679.97
C2H2+O=>CH2+CO                           6.120e+06    2.000   1900.10
C2H2+OH<=>C2H+H2O                        3.370e+07    2.000  14000.00
C2H2+O2=>HCCO+OH                         2.000e+08    1.500  30099.90
C2H3+O2<=>C2H2+HO2                       2.120e-06    6.000   9483.99
C2H3+O2=>CH2O+HCO                        1.700e+29   -5.310   6500.00
C2H3+O2=>CH2CHO+O                        3.500e+14   -0.610   5260.04
C2H3(+M)=>H+C2H2(+M)                     1.606e+10    1.028  40503.59
H2/2.00/ H2O/5.00/ CH2GSG/0.00/ CH2/0.00/ CO/2.00/ CO2/3.00/ C2H5/0.00/ 
HCO/0.00/ CH2OH/0.00/ HOCH2O/0.00/ C2H/0.00/ HCCO/0.00/ C2H3/0.00/ CH2CHO/0.00/ 
CH3CO/0.00/ C3H2/0.00/ C3H5O/0.00/ C3H5XT/0.00/ CH3COCH2/0.00/ IXC3H7/0.00/ 
CH3CHCHO/0.00/ CH2CCH2OH/0.00/ C2H5CO/0.00/ CH3COCH2O/0.00/ IXC3H7O2/0.00/ 
C3H6OOH2X1/0.00/ CH3COCH2O2/0.00/ IXC4H7O/0.00/ TXC4H9/0.00/ TXC4H9O/0.00/ 
IXC3H5CO/0.00/ IXC4H6OH/0.00/ TXC3H6CHO/0.00/ TXC3H6OCHO/0.00/ IXC4H8OH/0.00/ 
TC4H8O2HXI/0.00/ TXC3H6O2HCO/0.00/ IC4KETIT/0.00/ IXO2C4H8OH/0.00/ 
IC4H8OOHXTO2/0.00/ NEOXC5H11/0.00/ NEOXC5H11O/0.00/ TXC4H9CO/0.00/ 
NEOC5KETOX/0.00/ NEOXC5H10OOH/0.00/ NEOC5H10OOHXO2/0.00/ NEOC5H9Q2XN/0.00/ 
XXC7H13/0.00/ XC7H13OXZ/0.00/ YXC7H15/0.00/ TC4H9COC2H4S/0.00/ 
YC7H13OOHXX1/0.00/ YC7H14OOHXY2/0.00/ CXC8H17/0.00/ DXC8H17O/0.00/ 
BC8H16OOHXC/0.00/ 
     LOW  /  1.164e+39   -6.821  44491.63 /
     TROE/       1     0.00    675.00 1000000000000000.00 /
C2H4+O=>CH2CHO+H                         3.390e+06    1.880    179.02
C2H4+OH<=>C2H3+H2O                       2.020e+13    0.000   5955.07
C2H4+O=>CH3+HCO                          1.020e+07    1.880    179.02
C2H4+CH3<=>C2H3+CH4                      6.620e+00    3.700   9500.00
C2H4(+M)=>C2H2+H2(+M)                    1.800e+13    0.000  76000.00
CH2GSG/0.00/ CH2/0.00/ C2H5/0.00/ HCO/0.00/ CH2OH/0.00/ HOCH2O/0.00/ C2H/0.00/ 
HCCO/0.00/ C2H3/0.00/ CH2CHO/0.00/ CH3CO/0.00/ C3H2/0.00/ C3H5O/0.00/ C3H5XT/0.00/ 
CH3COCH2/0.00/ IXC3H7/0.00/ CH3CHCHO/0.00/ CH2CCH2OH/0.00/ C2H5CO/0.00/ 
CH3COCH2O/0.00/ IXC3H7O2/0.00/ C3H6OOH2X1/0.00/ CH3COCH2O2/0.00/ IXC4H7O/0.00/ 
TXC4H9/0.00/ TXC4H9O/0.00/ IXC3H5CO/0.00/ IXC4H6OH/0.00/ TXC3H6CHO/0.00/ 
TXC3H6OCHO/0.00/ IXC4H8OH/0.00/ TC4H8O2HXI/0.00/ TXC3H6O2HCO/0.00/ 
IC4KETIT/0.00/ IXO2C4H8OH/0.00/ IC4H8OOHXTO2/0.00/ NEOXC5H11/0.00/ 
NEOXC5H11O/0.00/ TXC4H9CO/0.00/ NEOC5KETOX/0.00/ NEOXC5H10OOH/0.00/ 
NEOC5H10OOHXO2/0.00/ NEOC5H9Q2XN/0.00/ XXC7H13/0.00/ XC7H13OXZ/0.00/ 
YXC7H15/0.00/ TC4H9COC2H4S/0.00/ YC7H13OOHXX1/0.00/ YC7H14OOHXY2/0.00/ 
CXC8H17/0.00/ DXC8H17O/0.00/ BC8H16OOHXC/0.00/ 
     LOW  /  1.500e+15    0.000  55440.01 /
!     FCCHECK/  0.0000      0.00 0.0000      0.00 1.0000      0.00
     TROE/       1     1.00 10000000.00 10000000.00 /
C2H4+H<=>C2H3+H2                         8.420e-03    4.620   2582.93
H+C2H4(+M)<=>C2H5(+M)                    1.081e+12    0.450   1821.94
H2/2.00/ H2O/5.00/ CH2GSG/0.00/ CH2/0.00/ CO/2.00/ CO2/3.00/ C2H5/0.00/ 
HCO/0.00/ CH2OH/0.00/ HOCH2O/0.00/ C2H/0.00/ HCCO/0.00/ C2H3/0.00/ CH2CHO/0.00/ 
CH3CO/0.00/ C3H2/0.00/ C3H5O/0.00/ C3H5XT/0.00/ CH3COCH2/0.00/ IXC3H7/0.00/ 
CH3CHCHO/0.00/ CH2CCH2OH/0.00/ C2H5CO/0.00/ CH3COCH2O/0.00/ IXC3H7O2/0.00/ 
C3H6OOH2X1/0.00/ CH3COCH2O2/0.00/ IXC4H7O/0.00/ TXC4H9/0.00/ TXC4H9O/0.00/ 
IXC3H5CO/0.00/ IXC4H6OH/0.00/ TXC3H6CHO/0.00/ TXC3H6OCHO/0.00/ IXC4H8OH/0.00/ 
TC4H8O2HXI/0.00/ TXC3H6O2HCO/0.00/ IC4KETIT/0.00/ IXO2C4H8OH/0.00/ 
IC4H8OOHXTO2/0.00/ NEOXC5H11/0.00/ NEOXC5H11O/0.00/ TXC4H9CO/0.00/ 
NEOC5KETOX/0.00/ NEOXC5H10OOH/0.00/ NEOC5H10OOHXO2/0.00/ NEOC5H9Q2XN/0.00/ 
XXC7H13/0.00/ XC7H13OXZ/0.00/ YXC7H15/0.00/ TC4H9COC2H4S/0.00/ 
YC7H13OOHXX1/0.00/ YC7H14OOHXY2/0.00/ CXC8H17/0.00/ DXC8H17O/0.00/ 
BC8H16OOHXC/0.00/ 
     LOW  /  1.112e+34   -5.000   4447.90 /
     TROE/       1     0.00     95.00    200.00 /
C2H5+O2=>C2H4+HO2                        1.220e+30   -5.760  10099.90
C2H6+OH<=>C2H5+H2O                       5.125e+06    2.060    854.92
C2H6+O=>C2H5+OH                          1.130e+14    0.000   7849.90
C2H6+H=>C2H5+H2                          5.540e+02    3.500   5167.07
C2H6=>C2H5+H                             2.783e+21   -1.560 103799.95
C2H6+CH3=>C2H5+CH4                       1.510e-07    6.000   6047.08
HCCO+H=>CH2GSG+CO                        1.100e+14    0.000      0.00
HCCO+O2=>CO2+HCO                         2.400e+11    0.000   -853.97
HCCO+O=>H+2CO                            8.000e+13    0.000      0.00
HCCO+OH=>2HCO                            1.000e+13    0.000      0.00
CH2GSG+CH2CO=>C2H4+CO                    1.600e+14    0.000      0.00
CH2CO+OH<=>HCCO+H2O                      1.000e+13    0.000   2000.00
CH2CO+OH=>CH2OH+CO                       3.730e+12    0.000  -1012.91
CH2CO+H<=>HCCO+H2                        2.000e+14    0.000   8000.00
CH2CO(+M)<=>CH2+CO(+M)                   3.000e+14    0.000  70979.92
CH2GSG/0.00/ CH2/0.00/ C2H5/0.00/ HCO/0.00/ CH2OH/0.00/ HOCH2O/0.00/ C2H/0.00/ 
HCCO/0.00/ C2H3/0.00/ CH2CHO/0.00/ CH3CO/0.00/ C3H2/0.00/ C3H5O/0.00/ C3H5XT/0.00/ 
CH3COCH2/0.00/ IXC3H7/0.00/ CH3CHCHO/0.00/ CH2CCH2OH/0.00/ C2H5CO/0.00/ 
CH3COCH2O/0.00/ IXC3H7O2/0.00/ C3H6OOH2X1/0.00/ CH3COCH2O2/0.00/ IXC4H7O/0.00/ 
TXC4H9/0.00/ TXC4H9O/0.00/ IXC3H5CO/0.00/ IXC4H6OH/0.00/ TXC3H6CHO/0.00/ 
TXC3H6OCHO/0.00/ IXC4H8OH/0.00/ TC4H8O2HXI/0.00/ TXC3H6O2HCO/0.00/ 
IC4KETIT/0.00/ IXO2C4H8OH/0.00/ IC4H8OOHXTO2/0.00/ NEOXC5H11/0.00/ 
NEOXC5H11O/0.00/ TXC4H9CO/0.00/ NEOC5KETOX/0.00/ NEOXC5H10OOH/0.00/ 
NEOC5H10OOHXO2/0.00/ NEOC5H9Q2XN/0.00/ XXC7H13/0.00/ XC7H13OXZ/0.00/ 
YXC7H15/0.00/ TC4H9COC2H4S/0.00/ YC7H13OOHXX1/0.00/ YC7H14OOHXY2/0.00/ 
CXC8H17/0.00/ DXC8H17O/0.00/ BC8H16OOHXC/0.00/ 
     LOW  /  3.600e+15    0.000  59270.08 /
!     FCCHECK/  0.0000      0.00 0.0000      0.00 1.0000      0.00
     TROE/       1     1.00 10000000.00 10000000.00 /
CH2CO+H=>CH3+CO                          1.100e+13    0.000   3400.10
CH2CO+O=>CH2+CO2                         1.750e+12    0.000   1349.90
CH2CO+O=>HCCO+OH                         1.000e+13    0.000   8000.00
CH2CHO<=>CH2CO+H                         3.094e+15   -0.260  50820.03