THERMO
   300.000  1000.000  5000.000
N2                000000N   2O   0H   0C   0G       300      5000    1000      1
 2.92664000E+00 1.48797700E-03-5.68476100E-07 1.00970400E-10-6.75335100E-15    2
-9.22797700E+02 5.98052800E+00 3.29867700E+00 1.40824000E-03-3.96322200E-06    3
 5.64151500E-09-2.44485500E-12-1.02090000E+03 3.95037200E+00                   4
O                 000000N   0O   1H   0C   0G       300      5000    1000      1
 2.54206000E+00-2.75506200E-05-3.10280300E-09 4.55106700E-12-4.36805200E-16    2
 2.92308000E+04 4.92030800E+00 2.94642900E+00-1.63816600E-03 2.42103200E-06    3
-1.60284300E-09 3.89069600E-13 2.91476400E+04 2.96399500E+00                   4
H                 000000N   0O   0H   1C   0G       300      5000    1000      1
 2.50104422E+00 0.00000000E+00 0.00000000E+00 0.00000000E+00 0.00000000E+00    2
 2.54747466E+04-4.65341317E-01 2.50104422E+00 0.00000000E+00 0.00000000E+00    3
 0.00000000E+00 0.00000000E+00 2.54747466E+04-4.65341317E-01                   4
OH                000000N   0O   1H   1C   0G       300      5000    1000      1
 3.69039275E+00-5.80802318E-04 7.63303256E-07-1.80262059E-10 0.00000000E+00    2
 3.67872158E+03 1.15883087E+00 3.43586219E+00 2.02235804E-04-1.13546412E-07    3
 2.42445149E-10-7.43651031E-14 3.74321252E+03 2.45014127E+00                   4
H2                000000N   0O   0H   2C   0G       300      5000    1000      1
 2.99142300E+00 7.00064400E-04-5.63382900E-08-9.23157800E-12 1.58275200E-15    2
-8.35034000E+02-1.35511000E+00 3.29812400E+00 8.24944200E-04-8.14301500E-07    3
-9.47543400E-11 4.13487200E-13-1.01252100E+03-3.29409400E+00                   4
H2O               000000N   0O   1H   2C   0G       300      5000    1000      1
 2.67214600E+00 3.05629300E-03-8.73026000E-07 1.20099600E-10-6.39161800E-15    2
-2.98992100E+04 6.86281700E+00 3.38684200E+00 3.47498200E-03-6.35469600E-06    3
 6.96858100E-09-2.50658800E-12-3.02081100E+04 2.59023300E+00                   4
H2O2              000000N   0O   2H   2C   0G       300      5000    1000      1
 4.57316700E+00 4.33613600E-03-1.47468900E-06 2.34890400E-10-1.43165400E-14    2
-1.80069600E+04 5.01137000E-01 3.38875400E+00 6.56922600E-03-1.48501300E-07    3
-4.62580600E-09 2.47151500E-12-1.76631500E+04 6.78536300E+00                   4
O2                000000N   0O   2H   0C   0G       300      5000    1000      1
 3.69757800E+00 6.13519700E-04-1.25884200E-07 1.77528100E-11-1.13643500E-15    2
-1.23393000E+03 3.18916600E+00 3.21293600E+00 1.12748600E-03-5.75615000E-07    3
 1.31387700E-09-8.76855400E-13-1.00524900E+03 6.03473800E+00                   4
HO2               000000N   0O   2H   1C   0G       300      5000    1000      1
 3.00201579E+00 4.38552424E-03-1.97594219E-06 3.32090097E-10 0.00000000E+00    2
 8.44944001E+02 9.26704616E+00 3.18310656E+00 3.66767950E-03-9.32385122E-07    3
-3.25852919E-10 1.51139912E-13 8.09181013E+02 8.39371099E+00                   4
CH3               000000N   0O   0H   3C   1G       300      5000    1000      1
 2.84405200E+00 6.13797400E-03-2.23034500E-06 3.78516100E-10-2.45215900E-14    2
 1.64378100E+04 5.45269700E+00 2.43044300E+00 1.11241000E-02-1.68022000E-05    3
 1.62182900E-08-5.86495300E-12 1.64237800E+04 6.78979400E+00                   4
CO                000000N   0O   1H   0C   1G       300      5000    1000      1
 3.02507800E+00 1.44268900E-03-5.63082800E-07 1.01858100E-10-6.91095200E-15    2
-1.42683500E+04 6.10821800E+00 3.26245200E+00 1.51194100E-03-3.88175500E-06    3
 5.58194400E-09-2.47495100E-12-1.43105400E+04 4.84889700E+00                   4
CH2O              000000N   0O   1H   2C   1G       300      5000    1000      1
 2.99560600E+00 6.68132100E-03-2.62895500E-06 4.73715300E-10-3.21251700E-14    2
-1.53203700E+04 6.91257200E+00 1.65273100E+00 1.26314400E-02-1.88816800E-05    3
 2.05003100E-08-8.41323700E-12-1.48654000E+04 1.37848200E+01                   4
CO2               000000N   0O   2H   0C   1G       300      5000    1000      1
 4.45362300E+00 3.14016900E-03-1.27841100E-06 2.39399700E-10-1.66903300E-14    2
-4.89669600E+04-9.55395900E-01 2.27572500E+00 9.92207200E-03-1.04091100E-05    3
 6.86668700E-09-2.11728000E-12-4.83731400E+04 1.01884900E+01                   4
CH4               000000N   0O   0H   4C   1G       300      5000    1000      1
 1.68347900E+00 1.02372400E-02-3.87512900E-06 6.78558500E-10-4.50342300E-14    2
-1.00807900E+04 9.62339500E+00 7.78741500E-01 1.74766800E-02-2.78340900E-05    3
 3.04970800E-08-1.22393100E-11-9.82522900E+03 1.37221900E+01                   4
C2H4              000000N   0O   0H   4C   2G       300      5000    1000      1
 3.52841900E+00 1.14851800E-02-4.41838500E-06 7.84460100E-10-5.26684800E-14    2
 4.42828900E+03 2.23038900E+00-8.61488000E-01 2.79616300E-02-3.38867700E-05    3
 2.78515200E-08-9.73787900E-12 5.57304600E+03 2.42114900E+01                   4
C2H6              000000N   0O   0H   6C   2G       300      5000    1000      1
 2.78247515E-01 2.31689676E-02-1.02319436E-05 1.67699340E-09 0.00000000E+00    2
-1.13124605E+04 1.96191748E+01-2.52854344E-02 2.40764754E-02-1.11893472E-05    3
 2.08340901E-09-5.29868616E-14-1.12345534E+04 2.11648750E+01                   4
CH3O              000000N   0O   1H   3C   1G       300      5000    1000      1
 3.77080000E+00 7.87149700E-03-2.65638400E-06 3.94443100E-10-2.11261600E-14    2
 1.27832500E+02 2.92957500E+00 2.10620400E+00 7.21659500E-03 5.33847200E-06    3
-7.37763600E-09 2.07561100E-12 9.78601100E+02 1.31521800E+01                   4
CH3OH             000000N   0O   1H   4C   1G       300      5000    1000      1
 4.02906100E+00 9.37659300E-03-3.05025400E-06 4.35879300E-10-2.22472300E-14    2
-2.61579100E+04 2.37819600E+00 2.66011500E+00 7.34150800E-03 7.17005100E-06    3
-8.79319400E-09 2.39057000E-12-2.53534800E+04 1.12326300E+01                   4
HOCHO             000000N   0O   2H   2C   1G       300      5000    1000      1
 2.71806922E+00 1.23155199E-02-6.02976465E-06 1.06137058E-09 0.00000000E+00    2
-4.67812848E+04 1.08043488E+01 1.43548185E+00 1.63363016E-02-1.06257421E-05    3
 3.32132977E-09-4.02176103E-13-4.64616504E+04 1.72885798E+01                   4
CH3O2             000000N   0O   2H   3C   1G       300      5000    1000      1
 3.72224006E+00 1.15430493E-02-4.55058763E-06 6.70308528E-10 0.00000000E+00    2
-5.34692750E+02 7.95706399E+00 4.26146906E+00 1.00873599E-02-3.21506184E-06    3
 2.09409267E-10 4.18339103E-14-6.84394259E+02 5.16330320E+00                   4
CH3O2H            000000N   0O   2H   4C   1G       300      5000    1000      1
 4.46640989E+00 1.51021326E-02-6.80105535E-06 1.13252538E-09 0.00000000E+00    2
-1.80236075E+04 3.04195823E+00 3.23442817E+00 1.90129767E-02-1.13386287E-05    3
 3.40306653E-09-4.11830222E-13-1.77197926E+04 9.25623949E+00                   4
C2H2              000000N   0O   0H   2C   2G       300      5000    1000      1
 4.43677000E+00 5.37603900E-03-1.91281700E-06 3.28637900E-10-2.15671000E-14    2
 2.56676600E+04-2.80033800E+00 2.01356200E+00 1.51904500E-02-1.61631900E-05    3
 9.07899200E-09-1.91274600E-12 2.61244400E+04 8.80537800E+00                   4
CH2CO             000000N   0O   1H   2C   2G       300      5000    1000      1
 6.03881700E+00 5.80484000E-03-1.92095400E-06 2.79448500E-10-1.45886800E-14    2
-8.58340200E+03-7.65758100E+00 2.97497100E+00 1.21187100E-02-2.34504600E-06    3
-6.46668500E-09 3.90564900E-12-7.63263700E+03 8.67355300E+00                   4
C3H4XA            000000N   0O   0H   4C   3G       300      5000    1000      1
 1.87236647E+00 2.05418753E-02-1.01530429E-05 1.85695238E-09 0.00000000E+00    2
 2.21172521E+04 1.30048394E+01 2.77533103E+00 1.56879285E-02-1.58879331E-06    3
-4.32156478E-09 1.56524976E-12 2.20180904E+04 9.00739638E+00                   4
CH3CHO            000000N   0O   1H   4C   2G       300      5000    1000      1
 5.86865000E+00 1.07942400E-02-3.64553000E-06 5.41291200E-10-2.89684400E-14    2
-2.26456900E+04-6.01294600E+00 2.50569500E+00 1.33699100E-02 4.67195300E-06    3
-1.12814000E-08 4.26356600E-12-2.12458900E+04 1.33508900E+01                   4
C3H3              000000N   0O   0H   3C   3G       300      5000    1000      1
 8.83104700E+00 4.35719500E-03-4.10906700E-07-2.36872300E-10 4.37652000E-14    2
 3.84742000E+04-2.17791900E+01 4.75420000E+00 1.10802800E-02 2.79332300E-07    3
-5.47921200E-09 1.94962900E-12 3.98888300E+04 5.85454900E-01                   4
C3H5XA            000000N   0O   0H   5C   3G       300      5000    1000      1
 3.66851913E+00 1.96203316E-02-8.52931569E-06 1.38113234E-09 0.00000000E+00    2
 1.83798091E+04 4.27588674E+00-5.29131958E-01 3.34559100E-02-2.53401027E-05    3
 1.02865754E-08-1.73258340E-12 1.93834226E+04 2.53067131E+01                   4
C3H6              000000N   0O   0H   6C   3G       300      5000    1000      1
 1.68134957E+00 2.49690718E-02-1.11276041E-05 1.84413526E-09 0.00000000E+00    2
 7.40726095E+02 1.53699482E+01 3.94615444E-01 2.89107662E-02-1.54886808E-05    3
 3.88814209E-09-3.37890352E-13 1.06688164E+03 2.19003736E+01                   4
C2H3CHO           000000N   0O   1H   4C   3G       300      5000    1000      1
 5.56154592E+00 1.79295837E-02-8.03464758E-06 1.32295375E-09 0.00000000E+00    2
-1.29035886E+04-3.47372739E+00 2.92355162E-01 3.54321417E-02-2.94936324E-05    3
 1.28100124E-08-2.26144108E-12-1.16521584E+04 2.28878280E+01                   4
CH3CHCO           000000N   0O   1H   4C   3G       300      5000    1000      1
 6.45951145E+00 1.56117000E-02-6.55127220E-06 1.02541702E-09 0.00000000E+00    2
-1.27042477E+04-7.71512800E+00 1.48380119E+00 3.22203013E-02-2.70250033E-05    3
 1.20499164E-08-2.18365931E-12-1.15276540E+04 1.71552068E+01                   4
CH3COCH3          000000N   0O   1H   6C   3G       300      5000    1000      1
 1.07057510E+00 3.05641014E-02-1.43848777E-05 2.47538664E-09 0.00000000E+00    2
-2.75121809E+04 2.06647304E+01 1.30767163E+00 2.92021742E-02-1.19045617E-05    3
 6.52150087E-10 4.67751203E-13-2.75328269E+04 1.96395025E+01                   4
CH3COCH2O2H       000000N   0O   3H   6C   3G       300      5000    1000      1
 7.24028399E+00 2.85127508E-02-1.30584984E-05 2.19051057E-09 0.00000000E+00    2
-3.94177289E+04-2.99086912E+00 4.94789761E+00 3.60474432E-02-2.21719933E-05    3
 6.98296874E-09-9.21269260E-13-3.88687178E+04 8.49926130E+00                   4
IXC4H7            000000N   0O   0H   7C   4G       300      5000    1000      1
 4.86718299E+00 2.75411161E-02-1.19816020E-05 1.93828198E-09 0.00000000E+00    2
 1.34120718E+04-1.04709781E+00-7.20881697E-04 4.36495730E-02-3.16385877E-05    3
 1.23984983E-08-2.04378360E-12 1.45717785E+04 2.33234340E+01                   4
IXC4H8            000000N   0O   0H   8C   4G       300      5000    1000      1
 2.86958571E+00 3.29649207E-02-1.46431210E-05 2.41629691E-09 0.00000000E+00    2
-4.22675236E+03 9.39239621E+00 9.38433173E-01 3.90547287E-02-2.16437148E-05    3
 5.87267077E-09-6.14435479E-13-3.74817891E+03 1.91442985E+01                   4
IXC3H5CHO         000000N   0O   1H   6C   4G       300      5000    1000      1
 7.19597854E+00 2.49956291E-02-1.10451332E-05 1.80920430E-09 0.00000000E+00    2
-1.72891601E+04-1.12990296E+01 6.27183793E-01 4.66780254E-02-3.74430631E-05    3
 1.58330542E-08-2.73952155E-12-1.57203117E+04 2.16034294E+01                   4
IXC3H6CO          000000N   0O   1H   6C   4G       300      5000    1000      1
 7.75337340E+00 2.34189265E-02-9.95663860E-06 1.57607259E-09 0.00000000E+00    2
-1.76870893E+04-1.35326559E+01 2.28039055E+00 4.17016989E-02-3.25089661E-05    3
 1.37243419E-08-2.40573132E-12-1.63939712E+04 1.38187714E+01                   4
CXC4H8O           000000N   0O   1H   8C   4G       300      5000    1000      1
 5.03282693E+00 3.45601470E-02-1.55322845E-05 2.58592799E-09 0.00000000E+00    2
-1.81070781E+04-3.94830228E+00-3.85994248E+00 6.35336284E-02-5.02756088E-05    3
 2.07232099E-08-3.47466961E-12-1.59593278E+04 4.07018600E+01                   4
IXC4H7OH          000000N   0O   1H   8C   4G       300      5000    1000      1
 4.51639244E+00 3.41233243E-02-1.54939573E-05 2.62031163E-09 0.00000000E+00    2
-2.21719085E+04 5.59170103E+00 1.69099899E+00 4.27168891E-02-2.49281695E-05    3
 7.00961522E-09-7.23262828E-13-2.14512334E+04 1.99500833E+01                   4
IXC3H7CHO         000000N   0O   1H   8C   4G       300      5000    1000      1
 3.80412072E+00 3.61930495E-02-1.66801482E-05 2.83275607E-09 0.00000000E+00    2
-2.86218337E+04 7.73143276E+00-2.73021382E-01 4.89696307E-02-3.12770049E-05    3
 1.00052945E-08-1.27512074E-12-2.76054737E+04 2.83451139E+01                   4
IXC4H7OOH         000000N   0O   2H   8C   4G       300      5000    1000      1
 8.26065337E+00 3.30637100E-02-1.47834745E-05 2.44188815E-09 0.00000000E+00    2
-1.63753273E+04-1.09741050E+01 2.99117402E+00 5.03349278E-02-3.56280061E-05    3
 1.33952154E-08-2.11053409E-12-1.51095046E+04 1.54537413E+01                   4
TXC4H9O2          000000N   0O   2H   9C   4G       300      5000    1000      1
 7.03796644E+00 3.70875608E-02-1.61556958E-05 2.59569588E-09 0.00000000E+00    2
-1.53973923E+04-8.30577422E+00 1.12530878E+00 5.71619609E-02-4.13505744E-05    3
 1.64128837E-08-2.78405154E-12-1.40211284E+04 2.11507408E+01                   4
TXC4H9O2H         000000N   0O   2H  10C   4G       300      5000    1000      1
 8.16420478E+00 4.00059797E-02-1.80138649E-05 2.97694570E-09 0.00000000E+00    2
-3.33468980E+04-1.58229298E+01 1.29249764E-01 6.67246471E-02-5.08027074E-05    3
 2.05384486E-08-3.45637276E-12-3.14407637E+04 2.43665859E+01                   4
TXC3H6O2CHO       000000N   0O   3H   7C   4G       300      5000    1000      1
 7.75936438E+00 3.61936186E-02-1.71113496E-05 2.94210397E-09 0.00000000E+00    2
-2.41005803E+04-8.00487441E+00 2.17883383E+00 5.41595832E-02-3.83435886E-05    3
 1.38308104E-08-2.04190147E-12-2.27394154E+04 2.00751264E+01                   4
TXC4H9CHO         000000N   0O   1H  10C   5G       300      5000    1000      1
 6.21962849E+00 4.35367149E-02-2.02472569E-05 3.46464130E-09 0.00000000E+00    2
-3.34410534E+04-7.09408182E+00-1.75588233E+00 6.88741216E-02-4.97161071E-05    3
 1.82921650E-08-2.72056934E-12-3.14740629E+04 3.31334480E+01                   4
NEOXC5H11O2       000000N   0O   2H  11C   5G       300      5000    1000      1
 8.59808373E+00 4.54720107E-02-2.02478943E-05 3.32530456E-09 0.00000000E+00    2
-1.81976852E+04-1.62820831E+01-3.91775516E-01 7.52300028E-02-5.65787545E-05    3
 2.26724856E-08-3.78445370E-12-1.60564398E+04 2.87221556E+01                   4
NEOC5KET          000000N   0O   3H  10C   5G       300      5000    1000      1
 1.04467630E+01 4.59824132E-02-2.16885686E-05 3.72324248E-09 0.00000000E+00    2
-4.47507935E+04-2.19737840E+01-2.93866665E-01 8.08589203E-02-6.33447432E-05    3
 2.53685892E-08-4.12504952E-12-4.21493526E+04 3.19875845E+01                   4
YXC7H14           000000N   0O   0H  14C   7G       300      5000    1000      1
 6.42815361E+00 5.76742228E-02-2.59279911E-05 4.32128275E-09 0.00000000E+00    2
-1.57386535E+04-6.09323501E+00-2.02582300E+00 8.48720776E-02-5.80398735E-05    3
 2.07673897E-08-3.07810270E-12-1.36755497E+04 3.64503430E+01                   4
IC3H7COC3H6XT     000000N   0O   1H  13C   7G       300      5000    1000      1
 7.52667569E+00 5.71528164E-02-2.59263557E-05 4.32864605E-09 0.00000000E+00    2
-2.41075220E+04-8.89356460E+00-6.60479235E-01 8.38430170E-02-5.79348944E-05    3
 2.10237414E-08-3.18960231E-12-2.21318078E+04 3.22077356E+01                   4
YXYXC7H14O        000000N   0O   1H  14C   7G       300      5000    1000      1
 8.39606370E+00 5.94477641E-02-2.66319245E-05 4.41522221E-09 0.00000000E+00    2
-3.44537850E+04-1.98887055E+01-6.12471972E+00 1.06936922E-01-8.38262727E-05    3
 3.44195785E-08-5.77838259E-12-3.09582104E+04 5.29684725E+01                   4
YXC7H15O2         000000N   0O   2H  15C   7G       300      5000    1000      1
 1.10373613E+01 6.12684993E-02-2.71227550E-05 4.43241443E-09 0.00000000E+00    2
-2.72388925E+04-2.57024929E+01-8.38784764E-01 1.00704796E-01-7.54396138E-05    3
 3.02618256E-08-5.07270322E-12-2.44180874E+04 3.37155224E+01                   4
JXC8H16           000000N   0O   0H  16C   8G       300      5000    1000      1
 8.71525678E+00 6.47667605E-02-2.93502878E-05 4.93470008E-09 0.00000000E+00    2
-1.93433698E+04-1.91129169E+01-3.03510590E+00 1.02427543E-01-7.36270033E-05    3
 2.75072358E-08-4.20623953E-12-1.64663790E+04 4.00606700E+01                   4
IXC8H18           000000N   0O   0H  18C   8G       300      5000    1000      1
 8.11399812E+00 7.18938145E-02-3.25717545E-05 5.46436799E-09 0.00000000E+00    2
-3.29583815E+04-1.70885610E+01-4.20868893E+00 1.11440581E-01-7.91346582E-05    3
 2.92406242E-08-4.43743191E-12-2.99446875E+04 4.49521701E+01                   4
IC8ETERAC         000000N   0O   1H  16C   8G       300      5000    1000      1
 8.51855913E+00 7.03147204E-02-3.21712551E-05 5.43952163E-09 0.00000000E+00    2
-4.00317779E+04-2.05540866E+01-8.86433196E+00 1.26345681E-01-9.85133684E-05    3
 3.95624320E-08-6.42886614E-12-3.57952835E+04 6.68956807E+01                   4
BXC8H17O2         000000N   0O   2H  17C   8G       300      5000    1000      1
 1.26466265E+01 6.90516562E-02-3.06977927E-05 5.03989266E-09 0.00000000E+00    2
-2.89601783E+04-3.41916287E+01-2.15621958E+00 1.17952841E-01-9.02684305E-05    3
 3.66889966E-08-6.17680535E-12-2.54279605E+04 3.99414429E+01                   4
BXC8H17O2H        000000N   0O   2H  18C   8G       300      5000    1000      1
 1.32856595E+01 7.27299355E-02-3.29917715E-05 5.50717359E-09 0.00000000E+00    2
-4.60140350E+04-3.83922486E+01-2.97893743E+00 1.25995081E-01-9.72400161E-05    3
 3.92666126E-08-6.51174344E-12-4.21034405E+04 4.31933724E+01                   4
IC8KETBC          000000N   0O   3H  16C   8G       300      5000    1000      1
 1.41848470E+01 7.05803669E-02-3.28409566E-05 5.58558079E-09 0.00000000E+00    2
-5.78265777E+04-3.90772017E+01-2.83319569E+00 1.25980016E-01-9.92059018E-05    3
 4.01886952E-08-6.61977538E-12-5.37135346E+04 4.63826685E+01                   4
BC8H16OOHXCO2     000000N   0O   4H  17C   8G       300      5000    1000      1
 1.79278156E+01 7.02331999E-02-3.16021374E-05 5.21863938E-09 0.00000000E+00    2
-4.24806806E+04-5.64162276E+01-1.33247845E+00 1.34171575E-01-1.09937622E-04    3
 4.71156608E-08-8.23961726E-12-3.79040775E+04 3.99527683E+01                   4
CH2GSG            000000N   0O   0H   2C   1G       300      5000    1000      1
 3.55288900E+00 2.06678800E-03-1.91411600E-07-1.10467300E-10 2.02135000E-14    2
 4.98497500E+04 1.68657000E+00 3.97126500E+00-1.69908900E-04 1.02536900E-06    3
 2.49255100E-09-1.98126600E-12 4.98936800E+04 5.75320700E-02                   4
CH2               000000N   0O   0H   2C   1G       300      5000    1000      1
 3.63640800E+00 1.93305700E-03-1.68701600E-07-1.00989900E-10 1.80825600E-14    2
 4.53413400E+04 2.15656100E+00 3.76223700E+00 1.15981900E-03 2.48958500E-07    3
 8.80083600E-10-7.33243500E-13 4.53679100E+04 1.71257800E+00                   4
C2H5              000000N   0O   0H   5C   2G       300      5000    1000      1
 7.19048000E+00 6.48407700E-03-6.42806500E-07-2.34787900E-10 3.88087700E-14    2
 1.06745500E+04-1.47808900E+01 2.69070200E+00 8.71913300E-03 4.41983900E-06    3
 9.33870300E-10-3.92777300E-12 1.28704000E+04 1.21382000E+01                   4
HCO               000000N   0O   1H   1C   1G       300      5000    1000      1
 3.55727100E+00 3.34557300E-03-1.33500600E-06 2.47057300E-10-1.71385100E-14    2
 3.91632400E+03 5.55229900E+00 2.89833000E+00 6.19914700E-03-9.62308400E-06    3
 1.08982500E-08-4.57488500E-12 4.15992200E+03 8.98361400E+00                   4
CH2OH             000000N   0O   1H   3C   1G       300      5000    1000      1
 6.32752000E+00 3.60827100E-03-3.20154700E-07-1.93875000E-10 3.50970500E-14    2
-4.47450900E+03-8.32936600E+00 2.86262800E+00 1.00152700E-02-5.28543600E-07    3
-5.13854000E-09 2.24604100E-12-3.34967900E+03 1.03979400E+01                   4
HOCH2O            000000N   0O   2H   3C   1G       300      5000    1000      1
 1.72976110E+00 1.61486804E-02-7.75692098E-06 1.37089042E-09 0.00000000E+00    2
-2.07251324E+04 1.91890617E+01 4.11183145E+00 7.53850697E-03 3.77337370E-06    3
-5.38746005E-09 1.45615887E-12-2.12471918E+04 7.46807254E+00                   4
C2H               000000N   0O   0H   1C   2G       300      5000    1000      1
 3.98636700E+00 3.14312300E-03-1.26724300E-06 2.92436300E-10-2.71632000E-14    2
 6.65588400E+04 1.19106300E+00 2.73770400E+00 8.04844600E-03-9.24431000E-06    3
 6.52525900E-09-1.93958000E-12 6.68381300E+04 7.30022000E+00                   4
HCCO              000000N   0O   1H   1C   2G       300      5000    1000      1
 6.75807300E+00 2.00040000E-03-2.02760700E-07-1.04113200E-10 1.96516500E-14    2
 1.90151300E+04-9.07126200E+00 5.04796500E+00 4.45347800E-03 2.26828300E-07    3
-1.48209500E-09 2.25074200E-13 1.96589200E+04 4.81843900E-01                   4
C2H3              000000N   0O   0H   3C   2G       300      5000    1000      1
 5.93346800E+00 4.01774600E-03-3.96674000E-07-1.44126700E-10 2.37864400E-14    2
 3.18543500E+04-8.53031300E+00 2.45927600E+00 7.37147600E-03 2.10987300E-06    3
-1.32164200E-09-1.18478400E-12 3.33522500E+04 1.15562000E+01                   4
CH2CHO            000000N   0O   1H   3C   2G       300      5000    1000      1
 5.97567000E+00 8.13059100E-03-2.74362400E-06 4.07030400E-10-2.17601700E-14    2
 4.90321800E+02-5.04525100E+00 3.40906200E+00 1.07385700E-02 1.89149200E-06    3
-7.15858300E-09 2.86738500E-12 1.52147700E+03 9.55829000E+00                   4
CH3CO             000000N   0O   1H   3C   2G       300      5000    1000      1
 5.61227900E+00 8.44988600E-03-2.85414700E-06 4.23837600E-10-2.26840400E-14    2
-5.18786300E+03-3.27494900E+00 3.12527800E+00 9.77822000E-03 4.52144800E-06    3
-9.00946200E-09 3.19371800E-12-4.10850800E+03 1.12288500E+01                   4
C3H2              000000N   0O   0H   2C   3G       300      5000    1000      1
 7.67098100E+00 2.74874900E-03-4.37094300E-07-6.45559900E-11 1.66388700E-14    2
 6.25972200E+04-1.23689000E+01 3.16671400E+00 2.48257200E-02-4.59163700E-05    3
 4.26801900E-08-1.48215200E-11 6.35042100E+04 8.86944600E+00                   4
C3H5O             000000N   0O   1H   5C   3G       300      5000    1000      1
 3.39074577E+00 2.41301620E-02-1.13650894E-05 1.97900938E-09 0.00000000E+00    2
 9.00757452E+03 1.03459501E+01 1.19822582E+00 3.05579837E-02-1.80630276E-05    3
 4.86150033E-09-4.19854562E-13 9.58217784E+03 2.15566221E+01                   4
C3H5XT            000000N   0O   0H   5C   3G       300      5000    1000      1
 1.94476358E+00 2.14172765E-02-9.55055670E-06 1.58351174E-09 0.00000000E+00    2
 2.95295307E+04 1.59800921E+01 2.17916644E+00 2.03826623E-02-7.91413834E-06    3
 4.76906187E-10 2.70398536E-13 2.94895338E+04 1.48785684E+01                   4
CH3COCH2          000000N   0O   1H   5C   3G       300      5000    1000      1
 4.27637519E+00 2.22349285E-02-1.00918419E-05 1.68997058E-09 0.00000000E+00    2
-5.97887937E+03 5.34578139E+00 1.80339187E+00 3.01407085E-02-1.93505552E-05    3
 6.38199034E-09-8.66103180E-13-5.37233261E+03 1.78046408E+01                   4
IXC3H7            000000N   0O   0H   7C   3G       300      5000    1000      1
 8.06050959E+00 1.57454262E-02-5.18208451E-06 7.47612403E-10-3.85343241E-14    2
 5.39001385E+03-2.18400821E+01 1.72033230E+00 2.54047546E-02 1.58851934E-06    3
-1.82000818E-08 8.81948534E-12 7.60899225E+03 1.30130797E+01                   4
CH3CHCHO          000000N   0O   1H   5C   3G       300      5000    1000      1
 3.71333831E+00 2.33955799E-02-1.07842958E-05 1.82368810E-09 0.00000000E+00    2
-4.55057438E+03 7.42946144E+00 1.54196914E+00 3.03297391E-02-1.88922690E-05    3
 5.92263358E-09-7.53762316E-13-4.01761098E+03 1.83707011E+01                   4
CH2CCH2OH         000000N   0O   1H   5C   3G       300      5000    1000      1
 3.58191118E+00 2.26426214E-02-1.04500902E-05 1.79729408E-09 0.00000000E+00    2
 1.15828067E+04 1.15174392E+01 2.88422544E+00 2.42428071E-02-1.14152268E-05    3
 1.71775334E-09 1.42177454E-13 1.17935615E+04 1.52102335E+01                   4
C2H5CO            000000N   0O   1H   5C   3G       300      5000    1000      1
 3.47466548E+00 2.32207586E-02-1.06500291E-05 1.80266137E-09 0.00000000E+00    2
-5.84231374E+03 1.08093318E+01 2.93313946E+00 2.47427911E-02-1.21222003E-05    3
 2.34701048E-09-5.26843338E-14-5.69663063E+03 1.35958355E+01                   4
CH3COCH2O         000000N   0O   2H   5C   3G       300      5000    1000      1
 3.50032506E+00 2.75257713E-02-1.28950710E-05 2.21063245E-09 0.00000000E+00    2
-1.91236482E+04 1.28924392E+01 3.72927689E+00 2.63943697E-02-1.09796486E-05    3
 8.58185303E-10 3.39474590E-13-1.91551565E+04 1.18505335E+01                   4
IXC3H7O2          000000N   0O   2H   7C   3G       300      5000    1000      1
 6.12023736E+00 2.85231950E-02-1.23003518E-05 1.95801865E-09 0.00000000E+00    2
-1.13282549E+04-2.75966759E+00 1.49941639E+00 4.43081205E-02-3.22414456E-05    3
 1.29687136E-08-2.23370569E-12-1.02587980E+04 2.02336490E+01                   4
C3H6OOH2X1        000000N   0O   2H   7C   3G       300      5000    1000      1
 9.51872798E+00 2.24339261E-02-9.25253217E-06 1.44422939E-09 0.00000000E+00    2
-3.66915364E+03-1.71895551E+01 2.09193950E+00 4.69220394E-02-3.90280831E-05    3
 1.72381453E-08-3.07968979E-12-1.89377918E+03 2.00178282E+01                   4
CH3COCH2O2        000000N   0O   3H   5C   3G       300      5000    1000      1
 6.39329449E+00 2.51799300E-02-1.09572190E-05 1.75980253E-09 0.00000000E+00    2
-2.07465812E+04 3.13566590E+00 5.95535468E+00 2.70255205E-02-1.37385031E-05    3
 3.53735851E-09-4.03922557E-13-2.06679464E+04 5.21436049E+00                   4
IXC4H7O           000000N   0O   1H   7C   4G       300      5000    1000      1
 4.69209202E+00 3.18284586E-02-1.46589391E-05 2.50217365E-09 0.00000000E+00    2
 4.11802116E+03 4.48457419E+00 1.74700687E+00 4.07783436E-02-2.44750243E-05    3
 7.06502958E-09-7.51570589E-13 4.86979233E+03 1.94535999E+01                   4
TXC4H9            000000N   0O   0H   9C   4G       300      5000    1000      1
-8.82785452E-01 4.11967238E-02-1.87601997E-05 3.14860204E-09 0.00000000E+00    2
 4.69038488E+03 3.16492535E+01-2.51042116E+00 4.61386722E-02-2.41553602E-05    3
 5.62362053E-09-3.94170734E-13 5.10551272E+03 3.99217310E+01                   4
TXC4H9O           000000N   0O   1H   9C   4G       300      5000    1000      1
 5.96369016E+00 3.54174670E-02-1.56240814E-05 2.55957950E-09 0.00000000E+00    2
-1.45314744E+04-5.40329065E+00-7.63315198E-01 5.74957888E-02-4.23175384E-05    3
 1.66195498E-08-2.71782966E-12-1.29172376E+04 2.83264236E+01                   4
IXC3H5CO          000000N   0O   1H   5C   4G       300      5000    1000      1
 8.63232766E+00 1.91159224E-02-8.00161116E-06 1.24510072E-09 0.00000000E+00    2
-1.42477548E+03-1.85563686E+01 1.85097069E+00 4.18855846E-02-3.62553731E-05    3
 1.65690659E-08-3.05850846E-12 1.70381441E+02 1.53014433E+01                   4
IXC4H6OH          000000N   0O   1H   7C   4G       300      5000    1000      1
 6.23253527E+00 2.92997409E-02-1.31836016E-05 2.19174644E-09 0.00000000E+00    2
-4.44108779E+03-4.02814898E+00 8.63371227E-01 4.68711282E-02-3.43580339E-05    3
 1.33031052E-08-2.13914975E-12-3.14948305E+03 2.29075523E+01                   4
TXC3H6CHO         000000N   0O   1H   7C   4G       300      5000    1000      1
 3.91099601E+00 3.36118134E-02-1.57739604E-05 2.66368595E-09 0.00000000E+00    2
-9.38390232E+03 6.74124440E+00 1.87052762E+00 4.14869677E-02-2.66815701E-05    3
 9.01531610E-09-1.27870633E-12-8.97730744E+03 1.66174178E+01                   4
TXC3H6OCHO        000000N   0O   2H   7C   4G       300      5000    1000      1
 6.53671659E+00 3.47812495E-02-1.68204949E-05 2.96910513E-09 0.00000000E+00    2
-2.33929526E+04-5.43390243E+00 3.70830259E-01 5.38475661E-02-3.82477565E-05    3
 1.32882237E-08-1.79228730E-12-2.18391262E+04 2.58142112E+01                   4
IXC4H8OH          000000N   0O   1H   9C   4G       300      5000    1000      1
 1.86200544E+00 4.04320397E-02-1.84711411E-05 3.13000062E-09 0.00000000E+00    2
-1.42782937E+04 2.27821331E+01 3.29612707E+00 3.47649647E-02-1.02505618E-05    3
-2.04641931E-09 1.18879408E-12-1.45627247E+04 1.58606320E+01                   4
TC4H8O2HXI        000000N   0O   2H   9C   4G       300      5000    1000      1
 7.61089109E+00 3.59744756E-02-1.59859910E-05 2.63895474E-09 0.00000000E+00    2
-6.62444458E+03-6.08640765E+00 2.30527318E+00 5.31796137E-02-3.64923776E-05    3
 1.32587851E-08-2.01296401E-12-5.33829833E+03 2.05748552E+01                   4
TXC3H6O2HCO       000000N   0O   3H   7C   4G       300      5000    1000      1
 8.96524420E+00 3.61099688E-02-1.78057941E-05 3.15608688E-09 0.00000000E+00    2
-2.41414928E+04-1.45897890E+01 2.03864428E+00 5.80421003E-02-4.32123528E-05    3
 1.58792094E-08-2.32209543E-12-2.24284673E+04 2.03680990E+01                   4
IC4KETIT          000000N   0O   3H   8C   4G       300      5000    1000      1
 8.20824678E+00 3.88104934E-02-1.83855843E-05 3.16362178E-09 0.00000000E+00    2
-4.06673585E+04-9.39693610E+00 1.15180626E+00 6.16547299E-02-4.55675821E-05    3
 1.72206701E-08-2.66284646E-12-3.89540631E+04 2.60740195E+01                   4
IXO2C4H8OH        000000N   0O   3H   9C   4G       300      5000    1000      1
 9.52846883E+00 3.58454789E-02-1.52896248E-05 2.42867350E-09 0.00000000E+00    2
-3.49562993E+04-1.48435722E+01 2.88826008E+00 5.80363124E-02-4.26690874E-05    3
 1.71759332E-08-2.91842186E-12-3.33881503E+04 1.83381149E+01                   4
IC4H8OOHXTO2      000000N   0O   4H   9C   4G       300      5000    1000      1