!*******************************
! Dummy "mechanism" to represent 
! a simple 3species system for 
! n-heptane non-reacting spray
!*******************************


ELEMENTS
C H O N 
END

SPECIES
NC7H16 O2     N2
END

TRANS ALL
NC7H16             2   459.600     6.253     0.000     0.000     1.000          
O2                 1   107.400     3.458     0.000     1.600     3.800          
N2                 1    97.530     3.621     0.000     1.760     4.000          
END

REACTIONS
END
