THERMO
    300.000  1000.000  5000.000
H                        H  1               G   300.000  5000.000  1000.000    1
 2.50000000E+00 0.00000000E+00 0.00000000E+00 0.00000000E+00 0.00000000E+00    2
 2.54716300E+04-4.60117600E-01 2.50000000E+00 0.00000000E+00 0.00000000E+00    3
 0.00000000E+00 0.00000000E+00 2.54716300E+04-4.60117600E-01                   4
H2                       H  2               G   300.000  5000.000  1000.000    1
 2.99142300E+00 7.00064400E-04-5.63382900E-08-9.23157800E-12 1.58275200E-15    2
-8.35034000E+02-1.35511000E+00 3.29812400E+00 8.24944200E-04-8.14301500E-07    3
-9.47543400E-11 4.13487200E-13-1.01252100E+03-3.29409400E+00                   4
O                        O  1               G   300.000  5000.000  1000.000    1
 2.54206000E+00-2.75506200E-05-3.10280300E-09 4.55106700E-12-4.36805200E-16    2
 2.92308000E+04 4.92030800E+00 2.94642900E+00-1.63816600E-03 2.42103200E-06    3
-1.60284300E-09 3.89069600E-13 2.91476400E+04 2.96399500E+00                   4
O2                       O  2               G   300.000  5000.000  1000.000    1
 3.69757800E+00 6.13519700E-04-1.25884200E-07 1.77528100E-11-1.13643500E-15    2
-1.23393000E+03 3.18916600E+00 3.21293600E+00 1.12748600E-03-5.75615000E-07    3
 1.31387700E-09-8.76855400E-13-1.00524900E+03 6.03473800E+00                   4
OH                       H  1 O  1          G   300.000  5000.000  1710.000    1
 2.85376040E+00 1.02994334E-03-2.32666477E-07 1.93750704E-11-3.15759847E-16    2
 3.69949720E+03 5.78756825E+00 3.41896226E+00 3.19255801E-04-3.08292717E-07    3
 3.64407494E-10-1.00195479E-13 3.45264448E+03 2.54433372E+00                   4
H2O                      H  2 O  1          G   300.000  5000.000  1000.000    1
 2.67214600E+00 3.05629300E-03-8.73026000E-07 1.20099600E-10-6.39161800E-15    2
-2.98992100E+04 6.86281700E+00 3.38684200E+00 3.47498200E-03-6.35469600E-06    3
6.96858100E-09-2.50658800E-12-3.02081100E+04 2.59023300E+00                   4
HO2                      H  1 O  2          G   300.000  5000.000  1000.000    1
 4.01721090E+00 2.23982013E-03-6.33658150E-07 1.14246370E-10-1.07908535E-14    2
1.11856713E+02 3.78510215E+00 4.30179801E+00-4.74912051E-03 2.11582891E-05    3
-2.42763894E-08 9.29225124E-12 2.94808040E+02 3.71666245E+00                   4
H2O2                     H  2 O  2          G   300.000  5000.000  1000.000    1
 4.57316700E+00 4.33613600E-03-1.47468900E-06 2.34890400E-10-1.43165400E-14    2
-1.80069600E+04 5.01137000E-01 3.38875400E+00 6.56922600E-03-1.48501300E-07    3
-4.62580600E-09 2.47151500E-12-1.76631500E+04 6.78536300E+00                   4
CO                       C  1 O  1          G   300.000  5000.000  1429.000    1
 3.11216890E+00 1.15948283E-03-3.38480362E-07 4.41403098E-11-2.12862228E-15    2
-1.42718539E+04 5.71725177E+00 3.19036352E+00 8.94419972E-04-3.24927563E-08    3
-1.04599967E-10 2.41965693E-14-1.42869054E+04 5.33277914E+00                   4
CO2                      C  1 O  2          G   300.000  5000.000  1380.000    1
 5.18953018E+00 2.06006476E-03-7.33575324E-07 1.17004374E-10-6.91729215E-15    2
-4.93178953E+04-5.18289303E+00 2.57930490E+00 8.24684987E-03-6.42716047E-06    3
2.54637024E-09-4.12030443E-13-4.84162830E+04 8.81141041E+00                   4
CH2O                     C  1 H  2 O  1     G   300.000  5000.000  1486.000    1
 4.02068394E+00 5.09903417E-03-1.76430480E-06 2.76025879E-10-1.60998042E-14    2
-1.49287258E+04 1.06525547E+00 3.00754197E+00 3.04729496E-03 5.25109246E-06    3
-5.12019281E-09 1.27133795E-12-1.41188397E+04 8.10120233E+00                   4
HCO                      C  1 H  1 O  1     G   300.000  5000.000  1690.000    1
 3.44148164E+00 3.52157719E-03-1.24136118E-06 1.97328644E-10-1.16538616E-14    2
 3.97409684E+03 6.24593456E+00 3.81049965E+00 8.13269825E-04 3.13164701E-06    3
-2.39478268E-09 5.06894554E-13 4.03859901E+03 4.94843165E+00                   4
HO2CHO                   C  1 H  2 O  3     G   300.000  5000.000  1378.000    1
 9.87503878E+00 4.64663708E-03-1.67230522E-06 2.68624413E-10-1.59595232E-14    2
-3.80502496E+04-2.24939155E+01 2.42464726E+00 2.19706380E-02-1.68705546E-05    3
6.25612194E-09-9.11645843E-13-3.54828006E+04 1.75027796E+01                   4
O2CHO                    C  1 H  1 O  3     G   300.000  5000.000  1368.000    1
7.24075139E+00 4.63312951E-03-1.63693995E-06 2.59706693E-10-1.52964699E-14    2
-1.87027618E+04-6.49547212E+00 3.96059309E+00 1.06002279E-02-5.25713351E-06    3
1.01716726E-09-2.87487602E-14-1.73599383E+04 1.17807483E+01                   4
HOCHO                    C  1 H  2 O  2     G   300.000  5000.000  1419.000    1
7.67134440E+00 4.43426373E-03-1.60867436E-06 2.59770020E-10-1.54899704E-14    2
-4.89708660E+04-1.73024418E+01 1.28069021E+00 1.52887758E-02-5.64150476E-06    3
-1.22968799E-09 8.14273233E-13-4.64347524E+04 1.83142081E+01                   4
OCHO                     C  1 H  1 O  2     G   300.000  5000.000  1412.000    1
6.49815560E+00 3.22319012E-03-1.17099595E-06 1.89272918E-10-1.12937000E-14    2
-1.81679042E+04-1.00412613E+01 1.42991854E+00 1.22803284E-02-5.28461096E-06    3
-3.73026551E-10 5.07953571E-13-1.62042814E+04 1.80411779E+01                   4
HOCH2O                   C  1 H  3 O  2     G   300.000  5000.000  1452.000    1
6.39521515E+00 7.43673043E-03-2.50422354E-06 3.84879712E-10-2.21778689E-14    2
-2.41108840E+04-6.63865583E+00 4.11183145E+00 7.53850697E-03 3.77337370E-06    3
-5.38746005E-09 1.45615887E-12-2.28023001E+04 7.46807254E+00                   4
CH3OH                    C  1 H  4 O  1     G   300.000  5000.000  1985.000    1
3.92867513E+00 9.81626074E-03-3.40615476E-06 5.35510197E-10-3.13776029E-14    2
-2.61454175E+04 2.69464483E+00 1.82176844E+00 1.23326420E-02-2.73742177E-06    3
-1.07387318E-09 4.23644837E-13-2.52222207E+04 1.48104300E+01                   4
CH2OH                    C  1 H  3 O  1     G   300.000  5000.000  1399.000    1
5.41875913E+00 5.66185244E-03-1.87471136E-06 2.84441938E-10-1.62299798E-14    2
-3.61475540E+03-3.49277963E+00 3.05674228E+00 1.19335634E-02-8.72501303E-06    3
3.82781054E-09-7.22887951E-13-2.83140190E+03 8.98878133E+00                   4
CH3O                     C  1 H  3 O  1     G   300.000  5000.000  1509.000    1
4.64787019E+00 6.90830683E-03-2.34404776E-06 3.61994570E-10-2.09253541E-14    2
-2.99208881E+02-1.57740193E+00 2.23058023E+00 8.53178586E-03 1.02166624E-06    3
-3.41046916E-09 9.94691038E-13 9.45939708E+02 1.28377569E+01                   4
CH3O2H                   C  1 H  4 O  2     G   300.000  5000.000  1367.000    1
8.80409289E+00 8.09427218E-03-2.85843274E-06 4.53369754E-10-2.66980707E-14    2
-1.98512174E+04-2.17000591E+01 2.83880024E+00 1.86096249E-02-8.48165412E-06    3
1.00387451E-09 1.71612429E-13-1.74033753E+04 1.16092433E+01                   4
CH3O2                    C  1 H  3 O  2     G   300.000  5000.000  1365.000    1
6.34718801E+00 7.92089358E-03-2.76601913E-06 4.35360631E-10-2.54984762E-14    2
-1.83436055E+03-7.42552545E+00 3.80497590E+00 9.80784660E-03-3.90940624E-07    3
-2.23072602E-09 6.43310820E-13-4.55625796E+02 7.81789100E+00                   4
CH4                      C  1 H  4          G   300.000  5000.000  1462.000    1
4.09617653E+00 7.44330845E-03-2.63871900E-06 4.19577604E-10-2.47508050E-14    2
-1.13835704E+04-4.67561383E+00 3.72113020E+00-2.50293289E-03 1.90246534E-05    3
-1.46871253E-08 3.43791152E-12-1.01424099E+04 1.22776596E+00                   4
CH3                      C  1 H  3          G   300.000  5000.000  1389.000    1
3.51281376E+00 5.11412613E-03-1.67632050E-06 2.52495174E-10-1.43302923E-14    2
1.61238027E+04 1.62436112E+00 3.43858162E+00 4.07752664E-03 3.19830994E-07    3
-9.47669390E-10 2.21828166E-13 1.63164018E+04 2.52807406E+00                   4
CH2                      C  1 H  2          G   300.000  5000.000  1000.000    1
3.63640800E+00 1.93305700E-03-1.68701600E-07-1.00989900E-10 1.80825600E-14    2
4.53413400E+04 2.15656100E+00 3.76223700E+00 1.15981900E-03 2.48958500E-07    3
8.80083600E-10-7.33243500E-13 4.53679100E+04 1.71257800E+00                   4
CH2(S)                   C  1 H  2          G   300.000  5000.000  1000.000    1
3.55288900E+00 2.06678800E-03-1.91411600E-07-1.10467300E-10 2.02135000E-14    2
4.98497500E+04 1.68657000E+00 3.97126500E+00-1.69908900E-04 1.02536900E-06    3
2.49255100E-09-1.98126600E-12 4.98936800E+04 5.75320700E-02                   4
C                        C  1               G   300.000  5000.000  1000.000    1
2.60208700E+00-1.78708100E-04 9.08704100E-08-1.14993300E-11 3.31084400E-16    2
8.54215400E+04 4.19517700E+00 2.49858500E+00 8.08577700E-05-2.69769700E-07    3
3.04072900E-10-1.10665200E-13 8.54587800E+04 4.75345900E+00                   4
CH                       C  1 H  1          G   300.000  5000.000  1000.000    1
2.19622300E+00 2.34038100E-03-7.05820100E-07 9.00758200E-11-3.85504000E-15    2
7.08672300E+04 9.17837300E+00 3.20020200E+00 2.07287600E-03-5.13443100E-06    3
5.73389000E-09-1.95553300E-12 7.04525900E+04 3.33158800E+00                   4
C2H6                     C  2 H  6          G   300.000  5000.000  1383.000    1
6.05972630E+00 1.30382837E-02-4.48103942E-06 6.97762095E-10-4.05606353E-14    2
-1.35751226E+04-1.28608001E+01 4.78623203E-02 2.40569127E-02-1.15155912E-05    3
2.48666238E-09-1.78343944E-13-1.10923014E+04 2.06544071E+01                   4
C2H5                     C  2 H  5          G   300.000  5000.000  1387.000    1
5.88784390E+00 1.03076793E-02-3.46844396E-06 5.32499257E-10-3.06512651E-14    2
1.15065499E+04-8.49651771E+00 1.32730217E+00 1.76656753E-02-6.14926558E-06    3
-3.01143466E-10 4.38617775E-13 1.34284028E+04 1.71789216E+01                   4
C2H4                     C  2 H  4          G   300.000  5000.000  1395.000    1
5.22176372E+00 8.96137303E-03-3.04868886E-06 4.71465524E-10-2.72739592E-14    2
3.60389679E+03-7.47789234E+00 2.33879687E-01 1.96334647E-02-1.16833214E-05    3
3.64246453E-09-4.77442715E-13 5.46489338E+03 1.97084228E+01                   4
C2H3                     C  2 H  3          G   300.000  5000.000  1395.000    1
5.07331248E+00 6.58316278E-03-2.23762924E-06 3.45803379E-10-1.99940490E-14    2
3.37234748E+04-3.39792712E+00 1.25329724E+00 1.56258370E-02-1.07803879E-05    3
4.18054634E-09-7.01360362E-13 3.50734773E+04 1.71341661E+01                   4
C2H2                     C  2 H  2          G   300.000  5000.000  1407.000    1
4.98265164E+00 4.25992930E-03-1.37483523E-06 2.04717964E-10-1.15191740E-14    2
2.52697118E+04-5.81321385E+00 2.06742667E+00 1.46568506E-02-1.52947063E-05    3
8.30965761E-09-1.72932175E-12 2.59578589E+04 8.62758672E+00                   4
C2H                      C  2 H  1          G   300.000  5000.000  1361.000    1
4.66893822E+00 2.01284720E-03-7.01828634E-07 1.10347228E-10-6.45790465E-15    2
6.60310696E+04-2.25424693E+00 4.27708350E+00 1.74130076E-03 7.31180206E-07    3
-9.71827901E-10 2.36956727E-13 6.63125955E+04 3.16341916E-01                   4
CH3CHO                   C  2 H  4 O  1     G   300.000  5000.000  1377.000    1
6.98518866E+00 9.67897787E-03-3.31841954E-06 5.16025901E-10-2.99725903E-14    2
-2.39807279E+04-1.27484852E+01 1.77060035E+00 1.84475161E-02-7.24138162E-06    3
2.34364561E-10 3.35543891E-13-2.18078850E+04 1.65023437E+01                   4
CH3CO                    C  2 H  3 O  1     G   300.000  5000.000  1371.000    1
6.56682466E+00 7.55308669E-03-2.59966784E-06 4.05334994E-10-2.35876164E-14    2
-4.76690401E+03-8.83301965E+00 2.52884150E+00 1.37152173E-02-4.28607476E-06    3
-7.71684278E-10 4.83836380E-13-3.02546532E+03 1.40340315E+01                   4
CH2CHO                   C  2 H  3 O  1     G   300.000  5000.000  1388.000    1
7.54145790E+00 6.82297125E-03-2.36938607E-06 3.71633517E-10-2.17160048E-14    2
-2.61437239E+03-1.62602766E+01 1.47616956E+00 2.08974186E-02-1.50123552E-05    3
5.62967382E-09-8.76624470E-13-4.82050510E+02 1.63756465E+01                   4
CH2CO                    C  2 H  2 O  1     G   300.000  5000.000  1000.000    1
6.03881700E+00 5.80484000E-03-1.92095400E-06 2.79448500E-10-1.45886800E-14    2
-8.58340200E+03-7.65758100E+00 2.97497100E+00 1.21187100E-02-2.34504600E-06    3
-6.46668500E-09 3.90564900E-12-7.63263700E+03 8.67355300E+00                   4
HCCO                     C  2 H  1 O  1     G   300.000  5000.000  1000.000    1
6.75807300E+00 2.00040000E-03-2.02760700E-07-1.04113200E-10 1.96516500E-14    2
1.90151300E+04-9.07126200E+00 5.04796500E+00 4.45347800E-03 2.26828300E-07    3
-1.48209500E-09 2.25074200E-13 1.96589200E+04 4.81843900E-01                   4
HCCOH                    C  2 H  2 O  1     G   300.000  5000.000  1000.000    1
7.32832400E+00 3.33641600E-03-3.02470500E-07-1.78110600E-10 3.24516800E-14    2
7.59825800E+03-1.40121400E+01 3.89946500E+00 9.70107500E-03-3.11930900E-07    3
-5.53773200E-09 2.46573200E-12 8.70119000E+03 4.49187500E+00                   4
CH3CO3H                  C  2 H  4 O  3     G   300.000  5000.000  1391.000    1
1.25060485E+01 9.47789695E-03-3.30402246E-06 5.19630793E-10-3.04233568E-14    2
-4.59856703E+04-3.79195947E+01 2.24135876E+00 3.37963514E-02-2.53887482E-05    3
9.67583587E-09-1.49266157E-12-4.24677831E+04 1.70668133E+01                   4
CH3CO3                   C  2 H  3 O  3     G   300.000  5000.000  1391.000    1
1.12522498E+01 8.33652672E-03-2.89014530E-06 4.52781734E-10-2.64354456E-14    2
-2.60238584E+04-2.96370457E+01 3.60373432E+00 2.70080341E-02-2.08293438E-05    3
8.50541104E-09-1.43846110E-12-2.34205171E+04 1.12014914E+01                   4
CH3CO2                   C  2 H  3 O  2     G   300.000  5000.000  1395.000    1
8.54059736E+00 8.32951214E-03-2.84722010E-06 4.41927196E-10-2.56373394E-14    2
-2.97290678E+04-2.03883545E+01 1.37440768E+00 2.49115604E-02-1.74308894E-05    3
6.24799508E-09-9.09516835E-13-2.72330150E+04 1.81405454E+01                   4
C2H5OH                   C  2 H  6 O  1     G   300.000  5000.000  1395.000    1
8.31742137E+00 1.29603294E-02-4.39286497E-06 6.77734995E-10-3.91448231E-14    2
-3.25219715E+04-1.96502783E+01 1.79106094E-01 3.09060081E-02-1.93596697E-05    3
6.31830859E-09-8.53166875E-13-2.95670605E+04 2.44715919E+01                   4
C2H5O                    C  2 H  5 O  1     G   300.000  5000.000  1393.000    1
8.23717244E+00 1.10885879E-02-3.78808372E-06 5.87613473E-10-3.40712889E-14    2
-6.22948597E+03-1.93190543E+01 2.87429022E-01 2.86500918E-02-1.83857008E-05    3
6.03096179E-09-8.04562643E-13-3.35717377E+03 2.37513898E+01                   4
PC2H4OH                  C  2 H  5 O  1     G   300.000  5000.000  1396.000    1
7.88509591E+00 1.08287795E-02-3.66829683E-06 5.65734300E-10-3.26673351E-14    2
-7.44974622E+03-1.44673770E+01 9.90023426E-01 2.61564272E-02-1.65928300E-05    3
5.50525131E-09-7.57520667E-13-4.96032283E+03 2.28675716E+01                   4
SC2H4OH                  C  2 H  5 O  1     G   300.000  5000.000  1397.000    1
8.34980768E+00 1.03718068E-02-3.49683481E-06 5.37524748E-10-3.09661005E-14    2
-1.10556188E+04-1.81354112E+01 1.61103852E+00 2.63511867E-02-1.82941500E-05    3
6.91243160E-09-1.10384057E-12-8.71494725E+03 1.80114775E+01                   4
O2C2H4OH                 C  2 H  5 O  3     G   300.000  5000.000  1392.000    1
1.07432659E+01 1.30957787E-02-4.45370088E-06 6.88548738E-10-3.98230113E-14    2
-2.55911274E+04-2.33254953E+01 4.11839445E+00 2.72240632E-02-1.60824430E-05    3
5.17033408E-09-7.31610168E-13-2.30857785E+04 1.28482112E+01                   4
C2H5O2H                  C  2 H  6 O  2     G   300.000  5000.000  1391.000    1
1.12305737E+01 1.20482120E-02-3.96730201E-06 6.00754632E-10-3.42657803E-14    2
-2.47977531E+04-3.25607232E+01 1.57329011E+00 3.52379996E-02-2.53203993E-05    3
9.56802476E-09-1.48167375E-12-2.15278368E+04 1.90472032E+01                   4
C2H5O2                   C  2 H  5 O  2     G   300.000  5000.000  1387.000    1
8.77641329E+00 1.18767163E-02-3.87683050E-06 5.83210754E-10-3.31006724E-14    2
-6.78748703E+03-1.83119972E+01 2.58630333E+00 2.61836362E-02-1.68306193E-05    3
6.08749295E-09-9.57302040E-13-4.58588992E+03 1.50486289E+01                   4
C2H4O2H                  C  2 H  5 O  2     G   300.000  5000.000  1397.000    1
1.05228954E+01 9.48091381E-03-3.55727763E-06 6.41445994E-10-4.21232247E-14    2
1.55718322E+03-2.31413632E+01 3.46916874E+00 2.71188626E-02-2.08022550E-05    3
8.44284845E-09-1.40756215E-12 3.89688270E+03 1.43400726E+01                   4
C2H4O1-2                 C  2 H  4 O  1     G   300.000  5000.000  1399.000    1
6.99485763E+00 1.00772459E-02-3.45220932E-06 5.36571216E-10-3.11563543E-14    2
-1.04091344E+04-1.59857976E+01-1.44361790E+00 2.91837107E-02-1.96805054E-05    3
6.67472575E-09-9.02139342E-13-7.43433507E+03 2.95212453E+01                   4
C2H3O1-2                 C  2 H  3 O  1     G   300.000  5000.000  1492.000    1
6.88486471E+00 6.94720501E-03-2.23214698E-06 3.32190767E-10-1.87124555E-14    2
1.26442200E+04-1.23842570E+01-1.62965122E+00 2.93455486E-02-2.43737550E-05    3
1.00522325E-08-1.61259036E-12 1.52459425E+04 3.22782741E+01                   4
CH3COCH3                 C  3 H  6 O  1     G   300.000  5000.000  1382.000    1
9.62674379E+00 1.45519245E-02-4.97749457E-06 7.72794591E-10-4.48367165E-14    2
-3.11862263E+04-2.61613449E+01 1.24527408E+00 2.99760255E-02-1.40026661E-05    3
2.16453512E-09 1.27637295E-13-2.78348727E+04 2.03682615E+01                   4
CH3COCH2                 C  3 H  5 O  1     G   300.000  5000.000  1388.000    1
1.08892477E+01 1.11540675E-02-3.85516785E-06 6.02834048E-10-3.51533449E-14    2
-1.00741464E+04-3.18043322E+01 1.22337251E+00 3.24546742E-02-2.13542518E-05    3
6.96777735E-09-8.99160299E-13-6.59419324E+03 2.05537233E+01                   4
CH3COCH2O2               C  3 H  5 O  3     G   300.000  5000.000  1379.000    1
1.27690342E+01 1.42554828E-02-4.92821461E-06 7.70448921E-10-4.49110534E-14    2
-2.34798669E+04-3.27155799E+01 5.95535468E+00 2.70255205E-02-1.37385031E-05    3
3.53735851E-09-4.03922557E-13-2.06679464E+04 5.21436049E+00                   4
CH3COCH2O2H              C  3 H  6 O  3     G   300.000  5000.000  1381.000    1
1.52372810E+01 1.44114651E-02-5.01290009E-06 7.87071229E-10-4.60225784E-14    2
-4.27564444E+04-4.77383784E+01 4.94789761E+00 3.60474432E-02-2.21719933E-05    3
6.98296874E-09-9.21269260E-13-3.88687178E+04 8.49926130E+00                   4
CH3COCH2O                C  3 H  5 O  2     G   300.000  5000.000  1370.000    1
1.14637586E+01 1.32124342E-02-4.56580495E-06 7.13897538E-10-4.16281047E-14    2
-2.23833017E+04-3.15127868E+01 3.72927689E+00 2.63943697E-02-1.09796486E-05    3
8.58185303E-10 3.39474590E-13-1.91551565E+04 1.18505335E+01                   4
C2H3CHO                  C  3 H  4 O  1     G   300.000  5000.000  1393.000    1
1.04184959E+01 9.48963321E-03-3.29310529E-06 5.16279203E-10-3.01587291E-14    2
-1.49630281E+04-3.07235061E+01 2.92355162E-01 3.54321417E-02-2.94936324E-05    3
1.28100124E-08-2.26144108E-12-1.16521584E+04 2.28878280E+01                   4
C2H3CO                   C  3 H  3 O  1     G   300.000  5000.000  1402.000    1
9.37467676E+00 7.91296900E-03-2.67198280E-06 4.11115430E-10-2.36978981E-14    2
1.92969514E+03-2.40892696E+01 1.36242013E+00 3.15273972E-02-3.00218935E-05    3
1.48167112E-08-2.87971530E-12 4.25770215E+03 1.72626546E+01                   4
C2H5CHO                  C  3 H  6 O  1     G   300.000  5000.000  1375.000    1
8.87216223E+00 2.01710762E-02-8.06487647E-06 1.37617784E-09-8.48922325E-14    2
-2.83848527E+04-2.35069163E+01 5.93107530E+00 8.87943855E-03 2.03764325E-05    3
-1.80149348E-08 4.14085655E-12-2.51377751E+04-5.87019974E-01                   4
C2H5CO                   C  3 H  5 O  1     G   300.000  5000.000  1362.000    1
1.00147418E+01 1.61527961E-02-6.62976122E-06 1.15290667E-09-7.21263458E-14    2
-1.00430305E+04-2.88570933E+01 8.35352246E+00-4.08739727E-03 3.64217954E-05    3
-2.72457713E-08 6.06440266E-12-6.58577307E+03-1.05948346E+01                   4
CH3OCH3                  C  2 H  6 O  1     G   300.000  5000.000  1368.000    1
8.27745836E+00 1.32135539E-02-4.53264362E-06 7.05316507E-10-4.09933283E-14    2
-2.61982700E+04-2.15190894E+01 1.50763450E+00 2.39914228E-02-8.68910500E-06    3
-9.66835762E-11 4.89319361E-13-2.32810894E+04 1.67317297E+01                   4
CH3OCH2                  C  2 H  5 O  1     G   300.000  5000.000  1376.000    1
8.17137842E+00 1.10086181E-02-3.82352277E-06 5.99637202E-10-3.50317513E-14    2
-3.41941605E+03-1.78650856E+01 2.91327415E+00 2.03364659E-02-9.59712342E-06    3
2.07478525E-09-1.71343362E-13-1.18844240E+03 1.16066817E+01                   4
CH3OCHO                  C  2 H  4 O  2     G   300.000  5000.000  1452.000    1
1.06569185E+01 9.38112723E-03-3.37677206E-06 5.42455596E-10-3.22295330E-14    2
-4.84651758E+04-3.27579443E+01 2.43526200E+00 1.81948325E-02 1.91236590E-06    3
-8.44248945E-09 2.61758910E-12-4.46514732E+04 1.49522265E+01                   4
CH3OCO                   C  2 H  3 O  2     G   300.000  5000.000  1423.000    1
1.02053021E+01 7.12269668E-03-2.57594255E-06 4.15104358E-10-2.47168227E-14    2
-2.46870635E+04-2.86407262E+01 2.83313145E+00 1.53447505E-02 1.89583962E-06    3
-7.70200413E-09 2.41564410E-12-2.13431832E+04 1.39524183E+01                   4
C3H8                     C  3 H  8          G   300.000  5000.000  1387.000    1
9.31450083E+00 1.73577154E-02-5.94222386E-06 9.22939762E-10-5.35576604E-14    2
-1.77234234E+04-2.89241517E+01-3.08230087E-01 3.65331801E-02-1.97610926E-05    3
5.15283344E-09-5.06336649E-13-1.39792198E+04 2.40478733E+01                   4
IC3H7                    C  3 H  7          G   300.000  5000.000  1373.000    1
8.14705217E+00 1.58727106E-02-5.44611541E-06 8.47207689E-10-4.92178752E-14    2
6.18073367E+03-1.91980850E+01 1.63417589E+00 2.40171372E-02-4.72808067E-06    3
-3.24354603E-09 1.23539044E-12 9.20752889E+03 1.83848082E+01                   4
NC3H7                    C  3 H  7          G   300.000  5000.000  1386.000    1
8.88635047E+00 1.52273279E-02-5.21905860E-06 8.11259208E-10-4.71028059E-14    2
7.34671584E+03-2.30727791E+01 4.74365329E-01 3.19190367E-02-1.71909780E-05    3
4.45927887E-09-4.36675398E-13 1.06314565E+04 2.32670929E+01                   4
C3H6                     C  3 H  6          G   300.000  5000.000  1388.000    1
8.01595958E+00 1.37023634E-02-4.66249733E-06 7.21254402E-10-4.17370126E-14    2
-1.76749303E+03-2.00160668E+01 3.94615444E-01 2.89107662E-02-1.54886808E-05    3
3.88814209E-09-3.37890352E-13 1.17760132E+03 2.19003736E+01                   4
C3H5-A                   C  3 H  5          G   300.000  5000.000  1397.000    1
8.45883958E+00 1.12695483E-02-3.83792864E-06 5.94059119E-10-3.43918030E-14    2
1.64683289E+04-2.32704266E+01-5.29131958E-01 3.34559100E-02-2.53401027E-05    3
1.02865754E-08-1.73258340E-12 1.94941423E+04 2.46172315E+01                   4
C3H5-S                   C  3 H  5          G   300.000  5000.000  1390.000    1
7.88765879E+00 1.13012591E-02-3.84213130E-06 5.93982677E-10-3.43567175E-14    2
2.83484913E+04-1.74291589E+01 1.32807335E+00 2.53107914E-02-1.51530439E-05    3
4.74345565E-09-6.24666084E-13 3.07981100E+04 1.83328787E+01                   4
C3H5-T                   C  3 H  5          G   300.000  5000.000  1382.000    1
7.37492443E+00 1.17510061E-02-4.00021283E-06 6.18947395E-10-3.58215018E-14    2
2.73982108E+04-1.43478655E+01 2.17916644E+00 2.03826623E-02-7.91413834E-06    3
4.76906187E-10 2.70398536E-13 2.96002535E+04 1.48785684E+01                   4
C3H4-P                   C  3 H  4          G   300.000  5000.000  1400.000    1
9.76810200E+00 5.21915100E-03-3.75314000E-07-2.99219100E-10 5.10787800E-14    2
1.86027700E+04-3.02067800E+01 3.02973000E+00 1.49896100E-02-1.39850000E-06    3
-3.96961900E-09 1.38821700E-12 2.14840800E+04 8.00459400E+00                   4
C3H4-A                   C  3 H  4          G   300.000  5000.000  1400.000    1
9.77625600E+00 5.30213800E-03-3.70111800E-07-3.02638600E-10 5.08958100E-14    2
1.95497200E+04-3.07706100E+01 2.53983100E+00 1.63343700E-02-1.76495000E-06    3
-4.64736500E-09 1.72913100E-12 2.25124300E+04 9.93570200E+00                   4
C3H3                     C  3 H  3          G   300.000  5000.000  1000.000    1
8.83104700E+00 4.35719500E-03-4.10906700E-07-2.36872300E-10 4.37652000E-14    2
3.84742000E+04-2.17791900E+01 4.75420000E+00 1.10802800E-02 2.79332300E-07    3
-5.47921200E-09 1.94962900E-12 3.98888300E+04 5.85454900E-01                   4
C3H2                     C  3 H  2          G   300.000  5000.000  1000.000    1
7.67098100E+00 2.74874900E-03-4.37094300E-07-6.45559900E-11 1.66388700E-14    2
6.25972200E+04-1.23689000E+01 3.16671400E+00 2.48257200E-02-4.59163700E-05    3
4.26801900E-08-1.48215200E-11 6.35042100E+04 8.86944600E+00                   4
C3H5O                    C  3 H  5 O  1     G   300.000  5000.000  1380.000    1
1.02551752E+01 1.14983720E-02-3.84645659E-06 5.88910346E-10-3.38557923E-14    2
6.26560810E+03-2.77655042E+01 1.19822582E+00 3.05579837E-02-1.80630276E-05    3
4.86150033E-09-4.19854562E-13 9.58217784E+03 2.15566221E+01                   4
C3H6OOH1-2               C  3 H  7 O  2     G   300.000  5000.000  1402.000    1
1.24605763E+01 1.58889526E-02-5.32742106E-06 8.15818791E-10-4.68723250E-14    2
-4.20305196E+03-3.23858947E+01 2.87774562E+00 3.74166999E-02-2.36058063E-05    3
7.79930860E-09-1.06042562E-12-7.82368119E+02 1.93941340E+01                   4
C3H6OOH1-3               C  3 H  7 O  2     G   300.000  5000.000  1384.000    1
1.46881564E+01 1.49941200E-02-5.24056505E-06 8.25462711E-10-4.83758952E-14    2
-4.77342863E+03-4.77984492E+01 1.88331465E+00 4.40156051E-02-3.07858462E-05    3
1.13214862E-08-1.75323184E-12-1.68779168E+02 2.14040621E+01                   4
C3H6OOH2-1               C  3 H  7 O  2     G   300.000  5000.000  1407.000    1
1.42163221E+01 1.43382450E-02-4.78004477E-06 7.29133134E-10-4.17761973E-14    2
-5.67381620E+03-4.35770997E+01 2.09193950E+00 4.69220394E-02-3.90280831E-05    3
1.72381453E-08-3.07968979E-12-1.89377918E+03 2.00178282E+01                   4
C3H6OOH1-2O2             C  3 H  7 O  4     G   300.000  5000.000  1386.000    1
1.91759159E+01 1.59857013E-02-5.61306378E-06 8.86880495E-10-5.20877040E-14    2
-2.64412115E+04-6.77512936E+01 2.65196584E+00 5.74638149E-02-4.72190867E-05    3
2.05591557E-08-3.68787387E-12-2.08829371E+04 2.01547955E+01                   4
C3H6OOH1-3O2             C  3 H  7 O  4     G   300.000  5000.000  1382.000    1
1.85916698E+01 1.65328553E-02-5.81343626E-06 9.19396939E-10-5.40320702E-14    2
-2.39598698E+04-6.42544402E+01 3.14864588E+00 5.33542571E-02-4.08330611E-05    3
1.67542220E-08-2.89288326E-12-1.85473645E+04 1.86305431E+01                   4
C3H6OOH2-1O2             C  3 H  7 O  4     G   300.000  5000.000  1386.000    1
1.91759159E+01 1.59857013E-02-5.61306378E-06 8.86880495E-10-5.20877040E-14    2
-2.64412115E+04-6.77512936E+01 2.65196584E+00 5.74638149E-02-4.72190867E-05    3
2.05591557E-08-3.68787387E-12-2.08829371E+04 2.01547955E+01                   4
NC3H7O2H                 C  3 H  8 O  2     G   300.000  5000.000  1385.000    1
1.50895501E+01 1.71714707E-02-5.98498879E-06 9.40964412E-10-5.50728381E-14    2
-2.98352445E+04-5.28090166E+01 1.13366696E+00 4.84919904E-02-3.31801457E-05    3
1.19308278E-08-1.80905372E-12-2.47845493E+04 2.27256088E+01                   4
IC3H7O2H                 C  3 H  8 O  2     G   300.000  5000.000  1389.000    1
1.57046391E+01 1.65924516E-02-5.77250934E-06 9.06453070E-10-5.30084111E-14    2
-3.23268564E+04-5.71735156E+01 5.19265570E-01 5.32111228E-02-4.05156892E-05    3
1.63346713E-08-2.73751233E-12-2.71048486E+04 2.40815065E+01                   4
NC3H7O2                  C  3 H  7 O  2     G   300.000  5000.000  1384.000    1
1.26327059E+01 1.69910726E-02-5.88866873E-06 9.22195396E-10-5.38230675E-14    2
-1.19194652E+04-3.85349297E+01 2.10731492E+00 3.96164986E-02-2.49491599E-05    3
8.59450300E-09-1.31240330E-12-7.93745567E+03 1.89082748E+01                   4
IC3H7O2                  C  3 H  7 O  2     G   300.000  5000.000  1388.000    1
1.32493493E+01 1.64082190E-02-5.67432062E-06 8.87336340E-10-5.17361535E-14    2
-1.44109855E+04-4.29066213E+01 1.49941639E+00 4.43081205E-02-3.22414456E-05    3
1.29687136E-08-2.23370569E-12-1.02587980E+04 2.02336490E+01                   4
NC3H7O                   C  3 H  7 O  1     G   300.000  5000.000  1398.000    1
1.14771726E+01 1.54936722E-02-5.29459014E-06 8.21476970E-10-4.76382658E-14    2
-1.03998532E+04-3.53681150E+01-2.16869993E-01 4.14789744E-02-2.68724173E-05    3
8.76685704E-09-1.13947550E-12-6.21358042E+03 2.78942641E+01                   4
IC3H7O                   C  3 H  7 O  1     G   300.000  5000.000  1393.000    1
1.23135031E+01 1.38062606E-02-4.91585531E-06 8.21075632E-10-5.07493001E-14    2
-1.24717023E+04-4.17270532E+01-8.18260771E-01 4.68807147E-02-3.74369377E-05    3
1.55917264E-08-2.64308171E-12-8.15153216E+03 2.79483196E+01                   4
C3H6O1-2                 C  3 H  6 O  1     G   300.000  5000.000  1379.000    1
1.19825289E+01 1.23964696E-02-4.39113813E-06 6.97911182E-10-4.11585127E-14    2
-1.69739189E+04-4.22894035E+01-1.21988153E+00 4.28578772E-02-3.17530249E-05    3
1.21763736E-08-1.94154303E-12-1.22953761E+04 2.88467826E+01                   4
C3H6O1-3                 C  3 H  6 O  1     G   300.000  5000.000  2035.000    1
1.02363953E+01 1.50514705E-02-5.63636534E-06 9.32463455E-10-5.66102441E-14    2
-1.46212029E+04-3.36724732E+01-2.75717996E+00 4.26371602E-02-2.56831231E-05    3